* XSpice netlist created from SPICE and liberty sources by spi2xspice.py
*SPICE netlist created from verilog structural netlist module mips by vlog2Spice (qflow)
** Start of included library /usr/local/share/qflow/tech/osu035_redm4/osu035_stdcells.sp
** End of included library /usr/local/share/qflow/tech/osu035_redm4/osu035_stdcells.sp
.subckt mips a_vdd a_gnd a_MemRead a_MemWrite a_clk a_memoryAddress_0_ a_memoryAddress_1_ a_memoryAddress_2_ a_memoryAddress_3_ a_memoryAddress_4_ a_memoryAddress_5_ a_memoryAddress_6_ a_memoryAddress_7_ a_memoryAddress_8_ a_memoryAddress_9_ a_memoryAddress_10_ a_memoryAddress_11_ a_memoryAddress_12_ a_memoryAddress_13_ a_memoryAddress_14_ a_memoryAddress_15_ a_memoryAddress_16_ a_memoryAddress_17_ a_memoryAddress_18_ a_memoryAddress_19_ a_memoryAddress_20_ a_memoryAddress_21_ a_memoryAddress_22_ a_memoryAddress_23_ a_memoryAddress_24_ a_memoryAddress_25_ a_memoryAddress_26_ a_memoryAddress_27_ a_memoryAddress_28_ a_memoryAddress_29_ a_memoryAddress_30_ a_memoryAddress_31_ a_memoryOutData_0_ a_memoryOutData_1_ a_memoryOutData_2_ a_memoryOutData_3_ a_memoryOutData_4_ a_memoryOutData_5_ a_memoryOutData_6_ a_memoryOutData_7_ a_memoryOutData_8_ a_memoryOutData_9_ a_memoryOutData_10_ a_memoryOutData_11_ a_memoryOutData_12_ a_memoryOutData_13_ a_memoryOutData_14_ a_memoryOutData_15_ a_memoryOutData_16_ a_memoryOutData_17_ a_memoryOutData_18_ a_memoryOutData_19_ a_memoryOutData_20_ a_memoryOutData_21_ a_memoryOutData_22_ a_memoryOutData_23_ a_memoryOutData_24_ a_memoryOutData_25_ a_memoryOutData_26_ a_memoryOutData_27_ a_memoryOutData_28_ a_memoryOutData_29_ a_memoryOutData_30_ a_memoryOutData_31_ a_memoryWriteData_0_ a_memoryWriteData_1_ a_memoryWriteData_2_ a_memoryWriteData_3_ a_memoryWriteData_4_ a_memoryWriteData_5_ a_memoryWriteData_6_ a_memoryWriteData_7_ a_memoryWriteData_8_ a_memoryWriteData_9_ a_memoryWriteData_10_ a_memoryWriteData_11_ a_memoryWriteData_12_ a_memoryWriteData_13_ a_memoryWriteData_14_ a_memoryWriteData_15_ a_memoryWriteData_16_ a_memoryWriteData_17_ a_memoryWriteData_18_ a_memoryWriteData_19_ a_memoryWriteData_20_ a_memoryWriteData_21_ a_memoryWriteData_22_ a_memoryWriteData_23_ a_memoryWriteData_24_ a_memoryWriteData_25_ a_memoryWriteData_26_ a_memoryWriteData_27_ a_memoryWriteData_28_ a_memoryWriteData_29_ a_memoryWriteData_30_ a_memoryWriteData_31_ a_rst
ABUFX2_insert1100 [rst] rst_hier0_bF$buf0 d_lut_BUFX2
ABUFX2_insert1099 [rst] rst_hier0_bF$buf1 d_lut_BUFX2
ABUFX2_insert1098 [rst] rst_hier0_bF$buf2 d_lut_BUFX2
ABUFX2_insert1097 [rst] rst_hier0_bF$buf3 d_lut_BUFX2
ABUFX2_insert1096 [rst] rst_hier0_bF$buf4 d_lut_BUFX2
ABUFX2_insert1095 [rst] rst_hier0_bF$buf5 d_lut_BUFX2
ABUFX2_insert1094 [rst] rst_hier0_bF$buf6 d_lut_BUFX2
ABUFX2_insert1093 [rst] rst_hier0_bF$buf7 d_lut_BUFX2
ABUFX2_insert1092 [rst] rst_hier0_bF$buf8 d_lut_BUFX2
ABUFX2_insert1091 [rst] rst_hier0_bF$buf9 d_lut_BUFX2
ACLKBUF1_insert1090 [clk] clk_hier0_bF$buf0 d_lut_CLKBUF1
ACLKBUF1_insert1089 [clk] clk_hier0_bF$buf1 d_lut_CLKBUF1
ACLKBUF1_insert1088 [clk] clk_hier0_bF$buf2 d_lut_CLKBUF1
ACLKBUF1_insert1087 [clk] clk_hier0_bF$buf3 d_lut_CLKBUF1
ACLKBUF1_insert1086 [clk] clk_hier0_bF$buf4 d_lut_CLKBUF1
ACLKBUF1_insert1085 [clk] clk_hier0_bF$buf5 d_lut_CLKBUF1
ACLKBUF1_insert1084 [clk] clk_hier0_bF$buf6 d_lut_CLKBUF1
ACLKBUF1_insert1083 [clk] clk_hier0_bF$buf7 d_lut_CLKBUF1
ACLKBUF1_insert1082 [clk] clk_hier0_bF$buf8 d_lut_CLKBUF1
ACLKBUF1_insert1081 [clk] clk_hier0_bF$buf9 d_lut_CLKBUF1
ABUFX2_insert1080 [\datapath_1.regfile_1.regEn\_16_] \datapath_1.regfile_1.regEn_16_bF$buf0\ d_lut_BUFX2
ABUFX2_insert1079 [\datapath_1.regfile_1.regEn\_16_] \datapath_1.regfile_1.regEn_16_bF$buf1\ d_lut_BUFX2
ABUFX2_insert1078 [\datapath_1.regfile_1.regEn\_16_] \datapath_1.regfile_1.regEn_16_bF$buf2\ d_lut_BUFX2
ABUFX2_insert1077 [\datapath_1.regfile_1.regEn\_16_] \datapath_1.regfile_1.regEn_16_bF$buf3\ d_lut_BUFX2
ABUFX2_insert1076 [\datapath_1.regfile_1.regEn\_16_] \datapath_1.regfile_1.regEn_16_bF$buf4\ d_lut_BUFX2
ABUFX2_insert1075 [\datapath_1.regfile_1.regEn\_16_] \datapath_1.regfile_1.regEn_16_bF$buf5\ d_lut_BUFX2
ABUFX2_insert1074 [\datapath_1.regfile_1.regEn\_16_] \datapath_1.regfile_1.regEn_16_bF$buf6\ d_lut_BUFX2
ABUFX2_insert1073 [\datapath_1.regfile_1.regEn\_16_] \datapath_1.regfile_1.regEn_16_bF$buf7\ d_lut_BUFX2
ABUFX2_insert1072 [_5472_] _5472__bF$buf0 d_lut_BUFX2
ABUFX2_insert1071 [_5472_] _5472__bF$buf1 d_lut_BUFX2
ABUFX2_insert1070 [_5472_] _5472__bF$buf2 d_lut_BUFX2
ABUFX2_insert1069 [_5472_] _5472__bF$buf3 d_lut_BUFX2
ABUFX2_insert1068 [_5472_] _5472__bF$buf4 d_lut_BUFX2
ABUFX2_insert1067 [_2368_] _2368__bF$buf0 d_lut_BUFX2
ABUFX2_insert1066 [_2368_] _2368__bF$buf1 d_lut_BUFX2
ABUFX2_insert1065 [_2368_] _2368__bF$buf2 d_lut_BUFX2
ABUFX2_insert1064 [_2368_] _2368__bF$buf3 d_lut_BUFX2
ABUFX2_insert1063 [_3899_] _3899__bF$buf0 d_lut_BUFX2
ABUFX2_insert1062 [_3899_] _3899__bF$buf1 d_lut_BUFX2
ABUFX2_insert1061 [_3899_] _3899__bF$buf2 d_lut_BUFX2
ABUFX2_insert1060 [_3899_] _3899__bF$buf3 d_lut_BUFX2
ABUFX2_insert1059 [_3899_] _3899__bF$buf4 d_lut_BUFX2
ABUFX2_insert1058 [\datapath_1.PCJump\_17_] \datapath_1.PCJump_17_bF$buf0\ d_lut_BUFX2
ABUFX2_insert1057 [\datapath_1.PCJump\_17_] \datapath_1.PCJump_17_bF$buf1\ d_lut_BUFX2
ABUFX2_insert1056 [\datapath_1.PCJump\_17_] \datapath_1.PCJump_17_bF$buf2\ d_lut_BUFX2
ABUFX2_insert1055 [\datapath_1.PCJump\_17_] \datapath_1.PCJump_17_bF$buf3\ d_lut_BUFX2
ABUFX2_insert1054 [\datapath_1.PCJump\_17_] \datapath_1.PCJump_17_bF$buf4\ d_lut_BUFX2
ABUFX2_insert1053 [\datapath_1.regfile_1.regEn\_7_] \datapath_1.regfile_1.regEn_7_bF$buf0\ d_lut_BUFX2
ABUFX2_insert1052 [\datapath_1.regfile_1.regEn\_7_] \datapath_1.regfile_1.regEn_7_bF$buf1\ d_lut_BUFX2
ABUFX2_insert1051 [\datapath_1.regfile_1.regEn\_7_] \datapath_1.regfile_1.regEn_7_bF$buf2\ d_lut_BUFX2
ABUFX2_insert1050 [\datapath_1.regfile_1.regEn\_7_] \datapath_1.regfile_1.regEn_7_bF$buf3\ d_lut_BUFX2
ABUFX2_insert1049 [\datapath_1.regfile_1.regEn\_7_] \datapath_1.regfile_1.regEn_7_bF$buf4\ d_lut_BUFX2
ABUFX2_insert1048 [\datapath_1.regfile_1.regEn\_7_] \datapath_1.regfile_1.regEn_7_bF$buf5\ d_lut_BUFX2
ABUFX2_insert1047 [\datapath_1.regfile_1.regEn\_7_] \datapath_1.regfile_1.regEn_7_bF$buf6\ d_lut_BUFX2
ABUFX2_insert1046 [\datapath_1.regfile_1.regEn\_7_] \datapath_1.regfile_1.regEn_7_bF$buf7\ d_lut_BUFX2
ABUFX2_insert1045 [\datapath_1.mux_wd3.dout\_15_] \datapath_1.mux_wd3.dout_15_bF$buf0\ d_lut_BUFX2
ABUFX2_insert1044 [\datapath_1.mux_wd3.dout\_15_] \datapath_1.mux_wd3.dout_15_bF$buf1\ d_lut_BUFX2
ABUFX2_insert1043 [\datapath_1.mux_wd3.dout\_15_] \datapath_1.mux_wd3.dout_15_bF$buf2\ d_lut_BUFX2
ABUFX2_insert1042 [\datapath_1.mux_wd3.dout\_15_] \datapath_1.mux_wd3.dout_15_bF$buf3\ d_lut_BUFX2
ABUFX2_insert1041 [\datapath_1.mux_wd3.dout\_15_] \datapath_1.mux_wd3.dout_15_bF$buf4\ d_lut_BUFX2
ABUFX2_insert1040 [\datapath_1.regfile_1.regEn\_19_] \datapath_1.regfile_1.regEn_19_bF$buf0\ d_lut_BUFX2
ABUFX2_insert1039 [\datapath_1.regfile_1.regEn\_19_] \datapath_1.regfile_1.regEn_19_bF$buf1\ d_lut_BUFX2
ABUFX2_insert1038 [\datapath_1.regfile_1.regEn\_19_] \datapath_1.regfile_1.regEn_19_bF$buf2\ d_lut_BUFX2
ABUFX2_insert1037 [\datapath_1.regfile_1.regEn\_19_] \datapath_1.regfile_1.regEn_19_bF$buf3\ d_lut_BUFX2
ABUFX2_insert1036 [\datapath_1.regfile_1.regEn\_19_] \datapath_1.regfile_1.regEn_19_bF$buf4\ d_lut_BUFX2
ABUFX2_insert1035 [\datapath_1.regfile_1.regEn\_19_] \datapath_1.regfile_1.regEn_19_bF$buf5\ d_lut_BUFX2
ABUFX2_insert1034 [\datapath_1.regfile_1.regEn\_19_] \datapath_1.regfile_1.regEn_19_bF$buf6\ d_lut_BUFX2
ABUFX2_insert1033 [\datapath_1.regfile_1.regEn\_19_] \datapath_1.regfile_1.regEn_19_bF$buf7\ d_lut_BUFX2
ABUFX2_insert1032 [_3961_] _3961__bF$buf0 d_lut_BUFX2
ABUFX2_insert1031 [_3961_] _3961__bF$buf1 d_lut_BUFX2
ABUFX2_insert1030 [_3961_] _3961__bF$buf2 d_lut_BUFX2
ABUFX2_insert1029 [_3961_] _3961__bF$buf3 d_lut_BUFX2
ABUFX2_insert1028 [_3961_] _3961__bF$buf4 d_lut_BUFX2
ABUFX2_insert1027 [_3923_] _3923__bF$buf0 d_lut_BUFX2
ABUFX2_insert1026 [_3923_] _3923__bF$buf1 d_lut_BUFX2
ABUFX2_insert1025 [_3923_] _3923__bF$buf2 d_lut_BUFX2
ABUFX2_insert1024 [_3923_] _3923__bF$buf3 d_lut_BUFX2
ABUFX2_insert1023 [_3923_] _3923__bF$buf4 d_lut_BUFX2
ABUFX2_insert1022 [\datapath_1.regfile_1.regEn\_22_] \datapath_1.regfile_1.regEn_22_bF$buf0\ d_lut_BUFX2
ABUFX2_insert1021 [\datapath_1.regfile_1.regEn\_22_] \datapath_1.regfile_1.regEn_22_bF$buf1\ d_lut_BUFX2
ABUFX2_insert1020 [\datapath_1.regfile_1.regEn\_22_] \datapath_1.regfile_1.regEn_22_bF$buf2\ d_lut_BUFX2
ABUFX2_insert1019 [\datapath_1.regfile_1.regEn\_22_] \datapath_1.regfile_1.regEn_22_bF$buf3\ d_lut_BUFX2
ABUFX2_insert1018 [\datapath_1.regfile_1.regEn\_22_] \datapath_1.regfile_1.regEn_22_bF$buf4\ d_lut_BUFX2
ABUFX2_insert1017 [\datapath_1.regfile_1.regEn\_22_] \datapath_1.regfile_1.regEn_22_bF$buf5\ d_lut_BUFX2
ABUFX2_insert1016 [\datapath_1.regfile_1.regEn\_22_] \datapath_1.regfile_1.regEn_22_bF$buf6\ d_lut_BUFX2
ABUFX2_insert1015 [\datapath_1.regfile_1.regEn\_22_] \datapath_1.regfile_1.regEn_22_bF$buf7\ d_lut_BUFX2
ABUFX2_insert1014 [ALUSrcB_1_] ALUSrcB_1_bF$buf0 d_lut_BUFX2
ABUFX2_insert1013 [ALUSrcB_1_] ALUSrcB_1_bF$buf1 d_lut_BUFX2
ABUFX2_insert1012 [ALUSrcB_1_] ALUSrcB_1_bF$buf2 d_lut_BUFX2
ABUFX2_insert1011 [ALUSrcB_1_] ALUSrcB_1_bF$buf3 d_lut_BUFX2
ABUFX2_insert1010 [ALUSrcB_1_] ALUSrcB_1_bF$buf4 d_lut_BUFX2
ABUFX2_insert1009 [\datapath_1.mux_wd3.dout\_18_] \datapath_1.mux_wd3.dout_18_bF$buf0\ d_lut_BUFX2
ABUFX2_insert1008 [\datapath_1.mux_wd3.dout\_18_] \datapath_1.mux_wd3.dout_18_bF$buf1\ d_lut_BUFX2
ABUFX2_insert1007 [\datapath_1.mux_wd3.dout\_18_] \datapath_1.mux_wd3.dout_18_bF$buf2\ d_lut_BUFX2
ABUFX2_insert1006 [\datapath_1.mux_wd3.dout\_18_] \datapath_1.mux_wd3.dout_18_bF$buf3\ d_lut_BUFX2
ABUFX2_insert1005 [\datapath_1.mux_wd3.dout\_18_] \datapath_1.mux_wd3.dout_18_bF$buf4\ d_lut_BUFX2
ABUFX2_insert1004 [_5478_] _5478__bF$buf0 d_lut_BUFX2
ABUFX2_insert1003 [_5478_] _5478__bF$buf1 d_lut_BUFX2
ABUFX2_insert1002 [_5478_] _5478__bF$buf2 d_lut_BUFX2
ABUFX2_insert1001 [_5478_] _5478__bF$buf3 d_lut_BUFX2
ABUFX2_insert1000 [_3870_] _3870__bF$buf0 d_lut_BUFX2
ABUFX2_insert999 [_3870_] _3870__bF$buf1 d_lut_BUFX2
ABUFX2_insert998 [_3870_] _3870__bF$buf2 d_lut_BUFX2
ABUFX2_insert997 [_3870_] _3870__bF$buf3 d_lut_BUFX2
ABUFX2_insert996 [\datapath_1.mux_wd3.dout\_21_] \datapath_1.mux_wd3.dout_21_bF$buf0\ d_lut_BUFX2
ABUFX2_insert995 [\datapath_1.mux_wd3.dout\_21_] \datapath_1.mux_wd3.dout_21_bF$buf1\ d_lut_BUFX2
ABUFX2_insert994 [\datapath_1.mux_wd3.dout\_21_] \datapath_1.mux_wd3.dout_21_bF$buf2\ d_lut_BUFX2
ABUFX2_insert993 [\datapath_1.mux_wd3.dout\_21_] \datapath_1.mux_wd3.dout_21_bF$buf3\ d_lut_BUFX2
ABUFX2_insert992 [\datapath_1.mux_wd3.dout\_21_] \datapath_1.mux_wd3.dout_21_bF$buf4\ d_lut_BUFX2
ABUFX2_insert991 [\datapath_1.regfile_1.regEn\_25_] \datapath_1.regfile_1.regEn_25_bF$buf0\ d_lut_BUFX2
ABUFX2_insert990 [\datapath_1.regfile_1.regEn\_25_] \datapath_1.regfile_1.regEn_25_bF$buf1\ d_lut_BUFX2
ABUFX2_insert989 [\datapath_1.regfile_1.regEn\_25_] \datapath_1.regfile_1.regEn_25_bF$buf2\ d_lut_BUFX2
ABUFX2_insert988 [\datapath_1.regfile_1.regEn\_25_] \datapath_1.regfile_1.regEn_25_bF$buf3\ d_lut_BUFX2
ABUFX2_insert987 [\datapath_1.regfile_1.regEn\_25_] \datapath_1.regfile_1.regEn_25_bF$buf4\ d_lut_BUFX2
ABUFX2_insert986 [\datapath_1.regfile_1.regEn\_25_] \datapath_1.regfile_1.regEn_25_bF$buf5\ d_lut_BUFX2
ABUFX2_insert985 [\datapath_1.regfile_1.regEn\_25_] \datapath_1.regfile_1.regEn_25_bF$buf6\ d_lut_BUFX2
ABUFX2_insert984 [\datapath_1.regfile_1.regEn\_25_] \datapath_1.regfile_1.regEn_25_bF$buf7\ d_lut_BUFX2
ABUFX2_insert983 [PCEn] PCEn_bF$buf0 d_lut_BUFX2
ABUFX2_insert982 [PCEn] PCEn_bF$buf1 d_lut_BUFX2
ABUFX2_insert981 [PCEn] PCEn_bF$buf2 d_lut_BUFX2
ABUFX2_insert980 [PCEn] PCEn_bF$buf3 d_lut_BUFX2
ABUFX2_insert979 [PCEn] PCEn_bF$buf4 d_lut_BUFX2
ABUFX2_insert978 [PCEn] PCEn_bF$buf5 d_lut_BUFX2
ABUFX2_insert977 [PCEn] PCEn_bF$buf6 d_lut_BUFX2
ABUFX2_insert976 [PCEn] PCEn_bF$buf7 d_lut_BUFX2
ABUFX2_insert975 [_3929_] _3929__bF$buf0 d_lut_BUFX2
ABUFX2_insert974 [_3929_] _3929__bF$buf1 d_lut_BUFX2
ABUFX2_insert973 [_3929_] _3929__bF$buf2 d_lut_BUFX2
ABUFX2_insert972 [_3929_] _3929__bF$buf3 d_lut_BUFX2
ABUFX2_insert971 [_3929_] _3929__bF$buf4 d_lut_BUFX2
ABUFX2_insert970 [\datapath_1.mux_wd3.dout\_24_] \datapath_1.mux_wd3.dout_24_bF$buf0\ d_lut_BUFX2
ABUFX2_insert969 [\datapath_1.mux_wd3.dout\_24_] \datapath_1.mux_wd3.dout_24_bF$buf1\ d_lut_BUFX2
ABUFX2_insert968 [\datapath_1.mux_wd3.dout\_24_] \datapath_1.mux_wd3.dout_24_bF$buf2\ d_lut_BUFX2
ABUFX2_insert967 [\datapath_1.mux_wd3.dout\_24_] \datapath_1.mux_wd3.dout_24_bF$buf3\ d_lut_BUFX2
ABUFX2_insert966 [\datapath_1.mux_wd3.dout\_24_] \datapath_1.mux_wd3.dout_24_bF$buf4\ d_lut_BUFX2
ABUFX2_insert965 [\datapath_1.regfile_1.regEn\_28_] \datapath_1.regfile_1.regEn_28_bF$buf0\ d_lut_BUFX2
ABUFX2_insert964 [\datapath_1.regfile_1.regEn\_28_] \datapath_1.regfile_1.regEn_28_bF$buf1\ d_lut_BUFX2
ABUFX2_insert963 [\datapath_1.regfile_1.regEn\_28_] \datapath_1.regfile_1.regEn_28_bF$buf2\ d_lut_BUFX2
ABUFX2_insert962 [\datapath_1.regfile_1.regEn\_28_] \datapath_1.regfile_1.regEn_28_bF$buf3\ d_lut_BUFX2
ABUFX2_insert961 [\datapath_1.regfile_1.regEn\_28_] \datapath_1.regfile_1.regEn_28_bF$buf4\ d_lut_BUFX2
ABUFX2_insert960 [\datapath_1.regfile_1.regEn\_28_] \datapath_1.regfile_1.regEn_28_bF$buf5\ d_lut_BUFX2
ABUFX2_insert959 [\datapath_1.regfile_1.regEn\_28_] \datapath_1.regfile_1.regEn_28_bF$buf6\ d_lut_BUFX2
ABUFX2_insert958 [\datapath_1.regfile_1.regEn\_28_] \datapath_1.regfile_1.regEn_28_bF$buf7\ d_lut_BUFX2
ABUFX2_insert957 [_5484_] _5484__bF$buf0 d_lut_BUFX2
ABUFX2_insert956 [_5484_] _5484__bF$buf1 d_lut_BUFX2
ABUFX2_insert955 [_5484_] _5484__bF$buf2 d_lut_BUFX2
ABUFX2_insert954 [_5484_] _5484__bF$buf3 d_lut_BUFX2
ABUFX2_insert953 [_5484_] _5484__bF$buf4 d_lut_BUFX2
ABUFX2_insert952 [_2477_] _2477__bF$buf0 d_lut_BUFX2
ABUFX2_insert951 [_2477_] _2477__bF$buf1 d_lut_BUFX2
ABUFX2_insert950 [_2477_] _2477__bF$buf2 d_lut_BUFX2
ABUFX2_insert949 [_2477_] _2477__bF$buf3 d_lut_BUFX2
ABUFX2_insert948 [\datapath_1.regfile_1.regEn\_31_] \datapath_1.regfile_1.regEn_31_bF$buf0\ d_lut_BUFX2
ABUFX2_insert947 [\datapath_1.regfile_1.regEn\_31_] \datapath_1.regfile_1.regEn_31_bF$buf1\ d_lut_BUFX2
ABUFX2_insert946 [\datapath_1.regfile_1.regEn\_31_] \datapath_1.regfile_1.regEn_31_bF$buf2\ d_lut_BUFX2
ABUFX2_insert945 [\datapath_1.regfile_1.regEn\_31_] \datapath_1.regfile_1.regEn_31_bF$buf3\ d_lut_BUFX2
ABUFX2_insert944 [\datapath_1.regfile_1.regEn\_31_] \datapath_1.regfile_1.regEn_31_bF$buf4\ d_lut_BUFX2
ABUFX2_insert943 [\datapath_1.regfile_1.regEn\_31_] \datapath_1.regfile_1.regEn_31_bF$buf5\ d_lut_BUFX2
ABUFX2_insert942 [\datapath_1.regfile_1.regEn\_31_] \datapath_1.regfile_1.regEn_31_bF$buf6\ d_lut_BUFX2
ABUFX2_insert941 [\datapath_1.regfile_1.regEn\_31_] \datapath_1.regfile_1.regEn_31_bF$buf7\ d_lut_BUFX2
ABUFX2_insert940 [\datapath_1.mux_wd3.dout\_27_] \datapath_1.mux_wd3.dout_27_bF$buf0\ d_lut_BUFX2
ABUFX2_insert939 [\datapath_1.mux_wd3.dout\_27_] \datapath_1.mux_wd3.dout_27_bF$buf1\ d_lut_BUFX2
ABUFX2_insert938 [\datapath_1.mux_wd3.dout\_27_] \datapath_1.mux_wd3.dout_27_bF$buf2\ d_lut_BUFX2
ABUFX2_insert937 [\datapath_1.mux_wd3.dout\_27_] \datapath_1.mux_wd3.dout_27_bF$buf3\ d_lut_BUFX2
ABUFX2_insert936 [\datapath_1.mux_wd3.dout\_27_] \datapath_1.mux_wd3.dout_27_bF$buf4\ d_lut_BUFX2
ABUFX2_insert935 [_3935_] _3935__bF$buf0 d_lut_BUFX2
ABUFX2_insert934 [_3935_] _3935__bF$buf1 d_lut_BUFX2
ABUFX2_insert933 [_3935_] _3935__bF$buf2 d_lut_BUFX2
ABUFX2_insert932 [_3935_] _3935__bF$buf3 d_lut_BUFX2
ABUFX2_insert931 [\datapath_1.mux_wd3.dout\_30_] \datapath_1.mux_wd3.dout_30_bF$buf0\ d_lut_BUFX2
ABUFX2_insert930 [\datapath_1.mux_wd3.dout\_30_] \datapath_1.mux_wd3.dout_30_bF$buf1\ d_lut_BUFX2
ABUFX2_insert929 [\datapath_1.mux_wd3.dout\_30_] \datapath_1.mux_wd3.dout_30_bF$buf2\ d_lut_BUFX2
ABUFX2_insert928 [\datapath_1.mux_wd3.dout\_30_] \datapath_1.mux_wd3.dout_30_bF$buf3\ d_lut_BUFX2
ABUFX2_insert927 [\datapath_1.mux_wd3.dout\_30_] \datapath_1.mux_wd3.dout_30_bF$buf4\ d_lut_BUFX2
ABUFX2_insert926 [\datapath_1.mux_wd3.dout\_2_] \datapath_1.mux_wd3.dout_2_bF$buf0\ d_lut_BUFX2
ABUFX2_insert925 [\datapath_1.mux_wd3.dout\_2_] \datapath_1.mux_wd3.dout_2_bF$buf1\ d_lut_BUFX2
ABUFX2_insert924 [\datapath_1.mux_wd3.dout\_2_] \datapath_1.mux_wd3.dout_2_bF$buf2\ d_lut_BUFX2
ABUFX2_insert923 [\datapath_1.mux_wd3.dout\_2_] \datapath_1.mux_wd3.dout_2_bF$buf3\ d_lut_BUFX2
ABUFX2_insert922 [\datapath_1.mux_wd3.dout\_2_] \datapath_1.mux_wd3.dout_2_bF$buf4\ d_lut_BUFX2
ABUFX2_insert921 [_3879_] _3879__bF$buf0 d_lut_BUFX2
ABUFX2_insert920 [_3879_] _3879__bF$buf1 d_lut_BUFX2
ABUFX2_insert919 [_3879_] _3879__bF$buf2 d_lut_BUFX2
ABUFX2_insert918 [_3879_] _3879__bF$buf3 d_lut_BUFX2
ABUFX2_insert917 [_5511_] _5511__bF$buf0 d_lut_BUFX2
ABUFX2_insert916 [_5511_] _5511__bF$buf1 d_lut_BUFX2
ABUFX2_insert915 [_5511_] _5511__bF$buf2 d_lut_BUFX2
ABUFX2_insert914 [_5511_] _5511__bF$buf3 d_lut_BUFX2
ABUFX2_insert913 [_5511_] _5511__bF$buf4 d_lut_BUFX2
ABUFX2_insert912 [_5493_] _5493__bF$buf0 d_lut_BUFX2
ABUFX2_insert911 [_5493_] _5493__bF$buf1 d_lut_BUFX2
ABUFX2_insert910 [_5493_] _5493__bF$buf2 d_lut_BUFX2
ABUFX2_insert909 [_5493_] _5493__bF$buf3 d_lut_BUFX2
ABUFX2_insert908 [\datapath_1.mux_wd3.dout\_5_] \datapath_1.mux_wd3.dout_5_bF$buf0\ d_lut_BUFX2
ABUFX2_insert907 [\datapath_1.mux_wd3.dout\_5_] \datapath_1.mux_wd3.dout_5_bF$buf1\ d_lut_BUFX2
ABUFX2_insert906 [\datapath_1.mux_wd3.dout\_5_] \datapath_1.mux_wd3.dout_5_bF$buf2\ d_lut_BUFX2
ABUFX2_insert905 [\datapath_1.mux_wd3.dout\_5_] \datapath_1.mux_wd3.dout_5_bF$buf3\ d_lut_BUFX2
ABUFX2_insert904 [\datapath_1.mux_wd3.dout\_5_] \datapath_1.mux_wd3.dout_5_bF$buf4\ d_lut_BUFX2
ABUFX2_insert903 [_5455_] _5455__bF$buf0 d_lut_BUFX2
ABUFX2_insert902 [_5455_] _5455__bF$buf1 d_lut_BUFX2
ABUFX2_insert901 [_5455_] _5455__bF$buf2 d_lut_BUFX2
ABUFX2_insert900 [_5455_] _5455__bF$buf3 d_lut_BUFX2
ABUFX2_insert899 [_5455_] _5455__bF$buf4 d_lut_BUFX2
ABUFX2_insert898 [IRWrite] IRWrite_bF$buf0 d_lut_BUFX2
ABUFX2_insert897 [IRWrite] IRWrite_bF$buf1 d_lut_BUFX2
ABUFX2_insert896 [IRWrite] IRWrite_bF$buf2 d_lut_BUFX2
ABUFX2_insert895 [IRWrite] IRWrite_bF$buf3 d_lut_BUFX2
ABUFX2_insert894 [IRWrite] IRWrite_bF$buf4 d_lut_BUFX2
ABUFX2_insert893 [IRWrite] IRWrite_bF$buf5 d_lut_BUFX2
ABUFX2_insert892 [IRWrite] IRWrite_bF$buf6 d_lut_BUFX2
ABUFX2_insert891 [IRWrite] IRWrite_bF$buf7 d_lut_BUFX2
ABUFX2_insert890 [_5514_] _5514__bF$buf0 d_lut_BUFX2
ABUFX2_insert889 [_5514_] _5514__bF$buf1 d_lut_BUFX2
ABUFX2_insert888 [_5514_] _5514__bF$buf2 d_lut_BUFX2
ABUFX2_insert887 [_5514_] _5514__bF$buf3 d_lut_BUFX2
ABUFX2_insert886 [_5514_] _5514__bF$buf4 d_lut_BUFX2
ABUFX2_insert885 [_2354_] _2354__bF$buf0 d_lut_BUFX2
ABUFX2_insert884 [_2354_] _2354__bF$buf1 d_lut_BUFX2
ABUFX2_insert883 [_2354_] _2354__bF$buf2 d_lut_BUFX2
ABUFX2_insert882 [_2354_] _2354__bF$buf3 d_lut_BUFX2
ABUFX2_insert881 [\datapath_1.mux_wd3.dout\_8_] \datapath_1.mux_wd3.dout_8_bF$buf0\ d_lut_BUFX2
ABUFX2_insert880 [\datapath_1.mux_wd3.dout\_8_] \datapath_1.mux_wd3.dout_8_bF$buf1\ d_lut_BUFX2
ABUFX2_insert879 [\datapath_1.mux_wd3.dout\_8_] \datapath_1.mux_wd3.dout_8_bF$buf2\ d_lut_BUFX2
ABUFX2_insert878 [\datapath_1.mux_wd3.dout\_8_] \datapath_1.mux_wd3.dout_8_bF$buf3\ d_lut_BUFX2
ABUFX2_insert877 [\datapath_1.mux_wd3.dout\_8_] \datapath_1.mux_wd3.dout_8_bF$buf4\ d_lut_BUFX2
ABUFX2_insert876 [_4062_] _4062__bF$buf0 d_lut_BUFX2
ABUFX2_insert875 [_4062_] _4062__bF$buf1 d_lut_BUFX2
ABUFX2_insert874 [_4062_] _4062__bF$buf2 d_lut_BUFX2
ABUFX2_insert873 [_4062_] _4062__bF$buf3 d_lut_BUFX2
ABUFX2_insert872 [_3944_] _3944__bF$buf0 d_lut_BUFX2
ABUFX2_insert871 [_3944_] _3944__bF$buf1 d_lut_BUFX2
ABUFX2_insert870 [_3944_] _3944__bF$buf2 d_lut_BUFX2
ABUFX2_insert869 [_3944_] _3944__bF$buf3 d_lut_BUFX2
ABUFX2_insert868 [_3906_] _3906__bF$buf0 d_lut_BUFX2
ABUFX2_insert867 [_3906_] _3906__bF$buf1 d_lut_BUFX2
ABUFX2_insert866 [_3906_] _3906__bF$buf2 d_lut_BUFX2
ABUFX2_insert865 [_3906_] _3906__bF$buf3 d_lut_BUFX2
ABUFX2_insert864 [_5555_] _5555__bF$buf0 d_lut_BUFX2
ABUFX2_insert863 [_5555_] _5555__bF$buf1 d_lut_BUFX2
ABUFX2_insert862 [_5555_] _5555__bF$buf2 d_lut_BUFX2
ABUFX2_insert861 [_5555_] _5555__bF$buf3 d_lut_BUFX2
ABUFX2_insert860 [_5517_] _5517__bF$buf0 d_lut_BUFX2
ABUFX2_insert859 [_5517_] _5517__bF$buf1 d_lut_BUFX2
ABUFX2_insert858 [_5517_] _5517__bF$buf2 d_lut_BUFX2
ABUFX2_insert857 [_5517_] _5517__bF$buf3 d_lut_BUFX2
ABUFX2_insert856 [_5517_] _5517__bF$buf4 d_lut_BUFX2
ABUFX2_insert855 [_5423_] _5423__bF$buf0 d_lut_BUFX2
ABUFX2_insert854 [_5423_] _5423__bF$buf1 d_lut_BUFX2
ABUFX2_insert853 [_5423_] _5423__bF$buf2 d_lut_BUFX2
ABUFX2_insert852 [_5423_] _5423__bF$buf3 d_lut_BUFX2
ABUFX2_insert851 [_3183_] _3183__bF$buf0 d_lut_BUFX2
ABUFX2_insert850 [_3183_] _3183__bF$buf1 d_lut_BUFX2
ABUFX2_insert849 [_3183_] _3183__bF$buf2 d_lut_BUFX2
ABUFX2_insert848 [_3183_] _3183__bF$buf3 d_lut_BUFX2
ABUFX2_insert847 [_3183_] _3183__bF$buf4 d_lut_BUFX2
ABUFX2_insert846 [_5520_] _5520__bF$buf0 d_lut_BUFX2
ABUFX2_insert845 [_5520_] _5520__bF$buf1 d_lut_BUFX2
ABUFX2_insert844 [_5520_] _5520__bF$buf2 d_lut_BUFX2
ABUFX2_insert843 [_5520_] _5520__bF$buf3 d_lut_BUFX2
ABUFX2_insert842 [_5520_] _5520__bF$buf4 d_lut_BUFX2
ABUFX2_insert841 [_3947_] _3947__bF$buf0 d_lut_BUFX2
ABUFX2_insert840 [_3947_] _3947__bF$buf1 d_lut_BUFX2
ABUFX2_insert839 [_3947_] _3947__bF$buf2 d_lut_BUFX2
ABUFX2_insert838 [_3947_] _3947__bF$buf3 d_lut_BUFX2
ABUFX2_insert837 [_5558_] _5558__bF$buf0 d_lut_BUFX2
ABUFX2_insert836 [_5558_] _5558__bF$buf1 d_lut_BUFX2
ABUFX2_insert835 [_5558_] _5558__bF$buf2 d_lut_BUFX2
ABUFX2_insert834 [_5558_] _5558__bF$buf3 d_lut_BUFX2
ABUFX2_insert833 [_3950_] _3950__bF$buf0 d_lut_BUFX2
ABUFX2_insert832 [_3950_] _3950__bF$buf1 d_lut_BUFX2
ABUFX2_insert831 [_3950_] _3950__bF$buf2 d_lut_BUFX2
ABUFX2_insert830 [_3950_] _3950__bF$buf3 d_lut_BUFX2
ABUFX2_insert829 [_5561_] _5561__bF$buf0 d_lut_BUFX2
ABUFX2_insert828 [_5561_] _5561__bF$buf1 d_lut_BUFX2
ABUFX2_insert827 [_5561_] _5561__bF$buf2 d_lut_BUFX2
ABUFX2_insert826 [_5561_] _5561__bF$buf3 d_lut_BUFX2
ABUFX2_insert825 [_3186_] _3186__bF$buf0 d_lut_BUFX2
ABUFX2_insert824 [_3186_] _3186__bF$buf1 d_lut_BUFX2
ABUFX2_insert823 [_3186_] _3186__bF$buf2 d_lut_BUFX2
ABUFX2_insert822 [_3186_] _3186__bF$buf3 d_lut_BUFX2
ABUFX2_insert821 [_3186_] _3186__bF$buf4 d_lut_BUFX2
ABUFX2_insert820 [\datapath_1.regfile_1.regEn\_11_] \datapath_1.regfile_1.regEn_11_bF$buf0\ d_lut_BUFX2
ABUFX2_insert819 [\datapath_1.regfile_1.regEn\_11_] \datapath_1.regfile_1.regEn_11_bF$buf1\ d_lut_BUFX2
ABUFX2_insert818 [\datapath_1.regfile_1.regEn\_11_] \datapath_1.regfile_1.regEn_11_bF$buf2\ d_lut_BUFX2
ABUFX2_insert817 [\datapath_1.regfile_1.regEn\_11_] \datapath_1.regfile_1.regEn_11_bF$buf3\ d_lut_BUFX2
ABUFX2_insert816 [\datapath_1.regfile_1.regEn\_11_] \datapath_1.regfile_1.regEn_11_bF$buf4\ d_lut_BUFX2
ABUFX2_insert815 [\datapath_1.regfile_1.regEn\_11_] \datapath_1.regfile_1.regEn_11_bF$buf5\ d_lut_BUFX2
ABUFX2_insert814 [\datapath_1.regfile_1.regEn\_11_] \datapath_1.regfile_1.regEn_11_bF$buf6\ d_lut_BUFX2
ABUFX2_insert813 [\datapath_1.regfile_1.regEn\_11_] \datapath_1.regfile_1.regEn_11_bF$buf7\ d_lut_BUFX2
ABUFX2_insert812 [_4068_] _4068__bF$buf0 d_lut_BUFX2
ABUFX2_insert811 [_4068_] _4068__bF$buf1 d_lut_BUFX2
ABUFX2_insert810 [_4068_] _4068__bF$buf2 d_lut_BUFX2
ABUFX2_insert809 [_4068_] _4068__bF$buf3 d_lut_BUFX2
ABUFX2_insert808 [_3894_] _3894__bF$buf0 d_lut_BUFX2
ABUFX2_insert807 [_3894_] _3894__bF$buf1 d_lut_BUFX2
ABUFX2_insert806 [_3894_] _3894__bF$buf2 d_lut_BUFX2
ABUFX2_insert805 [_3894_] _3894__bF$buf3 d_lut_BUFX2
ABUFX2_insert804 [_3894_] _3894__bF$buf4 d_lut_BUFX2
ABUFX2_insert803 [_3915_] _3915__bF$buf0 d_lut_BUFX2
ABUFX2_insert802 [_3915_] _3915__bF$buf1 d_lut_BUFX2
ABUFX2_insert801 [_3915_] _3915__bF$buf2 d_lut_BUFX2
ABUFX2_insert800 [_3915_] _3915__bF$buf3 d_lut_BUFX2
ABUFX2_insert799 [\datapath_1.regfile_1.regEn\_2_] \datapath_1.regfile_1.regEn_2_bF$buf0\ d_lut_BUFX2
ABUFX2_insert798 [\datapath_1.regfile_1.regEn\_2_] \datapath_1.regfile_1.regEn_2_bF$buf1\ d_lut_BUFX2
ABUFX2_insert797 [\datapath_1.regfile_1.regEn\_2_] \datapath_1.regfile_1.regEn_2_bF$buf2\ d_lut_BUFX2
ABUFX2_insert796 [\datapath_1.regfile_1.regEn\_2_] \datapath_1.regfile_1.regEn_2_bF$buf3\ d_lut_BUFX2
ABUFX2_insert795 [\datapath_1.regfile_1.regEn\_2_] \datapath_1.regfile_1.regEn_2_bF$buf4\ d_lut_BUFX2
ABUFX2_insert794 [\datapath_1.regfile_1.regEn\_2_] \datapath_1.regfile_1.regEn_2_bF$buf5\ d_lut_BUFX2
ABUFX2_insert793 [\datapath_1.regfile_1.regEn\_2_] \datapath_1.regfile_1.regEn_2_bF$buf6\ d_lut_BUFX2
ABUFX2_insert792 [\datapath_1.regfile_1.regEn\_2_] \datapath_1.regfile_1.regEn_2_bF$buf7\ d_lut_BUFX2
ABUFX2_insert791 [\datapath_1.mux_wd3.dout\_10_] \datapath_1.mux_wd3.dout_10_bF$buf0\ d_lut_BUFX2
ABUFX2_insert790 [\datapath_1.mux_wd3.dout\_10_] \datapath_1.mux_wd3.dout_10_bF$buf1\ d_lut_BUFX2
ABUFX2_insert789 [\datapath_1.mux_wd3.dout\_10_] \datapath_1.mux_wd3.dout_10_bF$buf2\ d_lut_BUFX2
ABUFX2_insert788 [\datapath_1.mux_wd3.dout\_10_] \datapath_1.mux_wd3.dout_10_bF$buf3\ d_lut_BUFX2
ABUFX2_insert787 [\datapath_1.mux_wd3.dout\_10_] \datapath_1.mux_wd3.dout_10_bF$buf4\ d_lut_BUFX2
ABUFX2_insert786 [\datapath_1.regfile_1.regEn\_14_] \datapath_1.regfile_1.regEn_14_bF$buf0\ d_lut_BUFX2
ABUFX2_insert785 [\datapath_1.regfile_1.regEn\_14_] \datapath_1.regfile_1.regEn_14_bF$buf1\ d_lut_BUFX2
ABUFX2_insert784 [\datapath_1.regfile_1.regEn\_14_] \datapath_1.regfile_1.regEn_14_bF$buf2\ d_lut_BUFX2
ABUFX2_insert783 [\datapath_1.regfile_1.regEn\_14_] \datapath_1.regfile_1.regEn_14_bF$buf3\ d_lut_BUFX2
ABUFX2_insert782 [\datapath_1.regfile_1.regEn\_14_] \datapath_1.regfile_1.regEn_14_bF$buf4\ d_lut_BUFX2
ABUFX2_insert781 [\datapath_1.regfile_1.regEn\_14_] \datapath_1.regfile_1.regEn_14_bF$buf5\ d_lut_BUFX2
ABUFX2_insert780 [\datapath_1.regfile_1.regEn\_14_] \datapath_1.regfile_1.regEn_14_bF$buf6\ d_lut_BUFX2
ABUFX2_insert779 [\datapath_1.regfile_1.regEn\_14_] \datapath_1.regfile_1.regEn_14_bF$buf7\ d_lut_BUFX2
ABUFX2_insert778 [_3019_] _3019__bF$buf0 d_lut_BUFX2
ABUFX2_insert777 [_3019_] _3019__bF$buf1 d_lut_BUFX2
ABUFX2_insert776 [_3019_] _3019__bF$buf2 d_lut_BUFX2
ABUFX2_insert775 [_3019_] _3019__bF$buf3 d_lut_BUFX2
ABUFX2_insert774 [_3019_] _3019__bF$buf4 d_lut_BUFX2
ABUFX2_insert773 [_3956_] _3956__bF$buf0 d_lut_BUFX2
ABUFX2_insert772 [_3956_] _3956__bF$buf1 d_lut_BUFX2
ABUFX2_insert771 [_3956_] _3956__bF$buf2 d_lut_BUFX2
ABUFX2_insert770 [_3956_] _3956__bF$buf3 d_lut_BUFX2
ABUFX2_insert769 [_3956_] _3956__bF$buf4 d_lut_BUFX2
ABUFX2_insert768 [\datapath_1.regfile_1.regEn\_5_] \datapath_1.regfile_1.regEn_5_bF$buf0\ d_lut_BUFX2
ABUFX2_insert767 [\datapath_1.regfile_1.regEn\_5_] \datapath_1.regfile_1.regEn_5_bF$buf1\ d_lut_BUFX2
ABUFX2_insert766 [\datapath_1.regfile_1.regEn\_5_] \datapath_1.regfile_1.regEn_5_bF$buf2\ d_lut_BUFX2
ABUFX2_insert765 [\datapath_1.regfile_1.regEn\_5_] \datapath_1.regfile_1.regEn_5_bF$buf3\ d_lut_BUFX2
ABUFX2_insert764 [\datapath_1.regfile_1.regEn\_5_] \datapath_1.regfile_1.regEn_5_bF$buf4\ d_lut_BUFX2
ABUFX2_insert763 [\datapath_1.regfile_1.regEn\_5_] \datapath_1.regfile_1.regEn_5_bF$buf5\ d_lut_BUFX2
ABUFX2_insert762 [\datapath_1.regfile_1.regEn\_5_] \datapath_1.regfile_1.regEn_5_bF$buf6\ d_lut_BUFX2
ABUFX2_insert761 [\datapath_1.regfile_1.regEn\_5_] \datapath_1.regfile_1.regEn_5_bF$buf7\ d_lut_BUFX2
ABUFX2_insert760 [_3022_] _3022__bF$buf0 d_lut_BUFX2
ABUFX2_insert759 [_3022_] _3022__bF$buf1 d_lut_BUFX2
ABUFX2_insert758 [_3022_] _3022__bF$buf2 d_lut_BUFX2
ABUFX2_insert757 [_3022_] _3022__bF$buf3 d_lut_BUFX2
ABUFX2_insert756 [_3022_] _3022__bF$buf4 d_lut_BUFX2
ABUFX2_insert755 [\datapath_1.mux_wd3.dout\_13_] \datapath_1.mux_wd3.dout_13_bF$buf0\ d_lut_BUFX2
ABUFX2_insert754 [\datapath_1.mux_wd3.dout\_13_] \datapath_1.mux_wd3.dout_13_bF$buf1\ d_lut_BUFX2
ABUFX2_insert753 [\datapath_1.mux_wd3.dout\_13_] \datapath_1.mux_wd3.dout_13_bF$buf2\ d_lut_BUFX2
ABUFX2_insert752 [\datapath_1.mux_wd3.dout\_13_] \datapath_1.mux_wd3.dout_13_bF$buf3\ d_lut_BUFX2
ABUFX2_insert751 [\datapath_1.mux_wd3.dout\_13_] \datapath_1.mux_wd3.dout_13_bF$buf4\ d_lut_BUFX2
ABUFX2_insert750 [\datapath_1.regfile_1.regEn\_17_] \datapath_1.regfile_1.regEn_17_bF$buf0\ d_lut_BUFX2
ABUFX2_insert749 [\datapath_1.regfile_1.regEn\_17_] \datapath_1.regfile_1.regEn_17_bF$buf1\ d_lut_BUFX2
ABUFX2_insert748 [\datapath_1.regfile_1.regEn\_17_] \datapath_1.regfile_1.regEn_17_bF$buf2\ d_lut_BUFX2
ABUFX2_insert747 [\datapath_1.regfile_1.regEn\_17_] \datapath_1.regfile_1.regEn_17_bF$buf3\ d_lut_BUFX2
ABUFX2_insert746 [\datapath_1.regfile_1.regEn\_17_] \datapath_1.regfile_1.regEn_17_bF$buf4\ d_lut_BUFX2
ABUFX2_insert745 [\datapath_1.regfile_1.regEn\_17_] \datapath_1.regfile_1.regEn_17_bF$buf5\ d_lut_BUFX2
ABUFX2_insert744 [\datapath_1.regfile_1.regEn\_17_] \datapath_1.regfile_1.regEn_17_bF$buf6\ d_lut_BUFX2
ABUFX2_insert743 [\datapath_1.regfile_1.regEn\_17_] \datapath_1.regfile_1.regEn_17_bF$buf7\ d_lut_BUFX2
ABUFX2_insert742 [\datapath_1.regfile_1.regEn\_20_] \datapath_1.regfile_1.regEn_20_bF$buf0\ d_lut_BUFX2
ABUFX2_insert741 [\datapath_1.regfile_1.regEn\_20_] \datapath_1.regfile_1.regEn_20_bF$buf1\ d_lut_BUFX2
ABUFX2_insert740 [\datapath_1.regfile_1.regEn\_20_] \datapath_1.regfile_1.regEn_20_bF$buf2\ d_lut_BUFX2
ABUFX2_insert739 [\datapath_1.regfile_1.regEn\_20_] \datapath_1.regfile_1.regEn_20_bF$buf3\ d_lut_BUFX2
ABUFX2_insert738 [\datapath_1.regfile_1.regEn\_20_] \datapath_1.regfile_1.regEn_20_bF$buf4\ d_lut_BUFX2
ABUFX2_insert737 [\datapath_1.regfile_1.regEn\_20_] \datapath_1.regfile_1.regEn_20_bF$buf5\ d_lut_BUFX2
ABUFX2_insert736 [\datapath_1.regfile_1.regEn\_20_] \datapath_1.regfile_1.regEn_20_bF$buf6\ d_lut_BUFX2
ABUFX2_insert735 [\datapath_1.regfile_1.regEn\_20_] \datapath_1.regfile_1.regEn_20_bF$buf7\ d_lut_BUFX2
ABUFX2_insert734 [ALUSrcA] ALUSrcA_bF$buf0 d_lut_BUFX2
ABUFX2_insert733 [ALUSrcA] ALUSrcA_bF$buf1 d_lut_BUFX2
ABUFX2_insert732 [ALUSrcA] ALUSrcA_bF$buf2 d_lut_BUFX2
ABUFX2_insert731 [ALUSrcA] ALUSrcA_bF$buf3 d_lut_BUFX2