* XSpice netlist created from SPICE and liberty sources by spi2xspice.py
*SPICE netlist created from verilog structural netlist module mips by vlog2Spice (qflow)
** Start of included library /usr/local/share/qflow/tech/osu018/osu018_stdcells.sp
** End of included library /usr/local/share/qflow/tech/osu018/osu018_stdcells.sp
.subckt mips a_vdd a_gnd a_MemRead a_MemWrite a_clk a_memoryAddress_0_ a_memoryAddress_1_ a_memoryAddress_2_ a_memoryAddress_3_ a_memoryAddress_4_ a_memoryAddress_5_ a_memoryAddress_6_ a_memoryAddress_7_ a_memoryAddress_8_ a_memoryAddress_9_ a_memoryAddress_10_ a_memoryAddress_11_ a_memoryAddress_12_ a_memoryAddress_13_ a_memoryAddress_14_ a_memoryAddress_15_ a_memoryAddress_16_ a_memoryAddress_17_ a_memoryAddress_18_ a_memoryAddress_19_ a_memoryAddress_20_ a_memoryAddress_21_ a_memoryAddress_22_ a_memoryAddress_23_ a_memoryAddress_24_ a_memoryAddress_25_ a_memoryAddress_26_ a_memoryAddress_27_ a_memoryAddress_28_ a_memoryAddress_29_ a_memoryAddress_30_ a_memoryAddress_31_ a_memoryOutData_0_ a_memoryOutData_1_ a_memoryOutData_2_ a_memoryOutData_3_ a_memoryOutData_4_ a_memoryOutData_5_ a_memoryOutData_6_ a_memoryOutData_7_ a_memoryOutData_8_ a_memoryOutData_9_ a_memoryOutData_10_ a_memoryOutData_11_ a_memoryOutData_12_ a_memoryOutData_13_ a_memoryOutData_14_ a_memoryOutData_15_ a_memoryOutData_16_ a_memoryOutData_17_ a_memoryOutData_18_ a_memoryOutData_19_ a_memoryOutData_20_ a_memoryOutData_21_ a_memoryOutData_22_ a_memoryOutData_23_ a_memoryOutData_24_ a_memoryOutData_25_ a_memoryOutData_26_ a_memoryOutData_27_ a_memoryOutData_28_ a_memoryOutData_29_ a_memoryOutData_30_ a_memoryOutData_31_ a_memoryWriteData_0_ a_memoryWriteData_1_ a_memoryWriteData_2_ a_memoryWriteData_3_ a_memoryWriteData_4_ a_memoryWriteData_5_ a_memoryWriteData_6_ a_memoryWriteData_7_ a_memoryWriteData_8_ a_memoryWriteData_9_ a_memoryWriteData_10_ a_memoryWriteData_11_ a_memoryWriteData_12_ a_memoryWriteData_13_ a_memoryWriteData_14_ a_memoryWriteData_15_ a_memoryWriteData_16_ a_memoryWriteData_17_ a_memoryWriteData_18_ a_memoryWriteData_19_ a_memoryWriteData_20_ a_memoryWriteData_21_ a_memoryWriteData_22_ a_memoryWriteData_23_ a_memoryWriteData_24_ a_memoryWriteData_25_ a_memoryWriteData_26_ a_memoryWriteData_27_ a_memoryWriteData_28_ a_memoryWriteData_29_ a_memoryWriteData_30_ a_memoryWriteData_31_ a_rst
ABUFX2_insert1093 [rst] rst_hier0_bF$buf0 d_lut_BUFX2
ABUFX2_insert1092 [rst] rst_hier0_bF$buf1 d_lut_BUFX2
ABUFX2_insert1091 [rst] rst_hier0_bF$buf2 d_lut_BUFX2
ABUFX2_insert1090 [rst] rst_hier0_bF$buf3 d_lut_BUFX2
ABUFX2_insert1089 [rst] rst_hier0_bF$buf4 d_lut_BUFX2
ABUFX2_insert1088 [rst] rst_hier0_bF$buf5 d_lut_BUFX2
ABUFX2_insert1087 [rst] rst_hier0_bF$buf6 d_lut_BUFX2
ABUFX2_insert1086 [rst] rst_hier0_bF$buf7 d_lut_BUFX2
ABUFX2_insert1085 [rst] rst_hier0_bF$buf8 d_lut_BUFX2
ABUFX2_insert1084 [rst] rst_hier0_bF$buf9 d_lut_BUFX2
ACLKBUF1_insert1083 [clk] clk_hier0_bF$buf0 d_lut_CLKBUF1
ACLKBUF1_insert1082 [clk] clk_hier0_bF$buf1 d_lut_CLKBUF1
ACLKBUF1_insert1081 [clk] clk_hier0_bF$buf2 d_lut_CLKBUF1
ACLKBUF1_insert1080 [clk] clk_hier0_bF$buf3 d_lut_CLKBUF1
ACLKBUF1_insert1079 [clk] clk_hier0_bF$buf4 d_lut_CLKBUF1
ACLKBUF1_insert1078 [clk] clk_hier0_bF$buf5 d_lut_CLKBUF1
ACLKBUF1_insert1077 [clk] clk_hier0_bF$buf6 d_lut_CLKBUF1
ACLKBUF1_insert1076 [clk] clk_hier0_bF$buf7 d_lut_CLKBUF1
ACLKBUF1_insert1075 [clk] clk_hier0_bF$buf8 d_lut_CLKBUF1
ACLKBUF1_insert1074 [clk] clk_hier0_bF$buf9 d_lut_CLKBUF1
ABUFX2_insert1073 [\datapath_1.regfile_1.regEn\_16_] \datapath_1.regfile_1.regEn_16_bF$buf0\ d_lut_BUFX2
ABUFX2_insert1072 [\datapath_1.regfile_1.regEn\_16_] \datapath_1.regfile_1.regEn_16_bF$buf1\ d_lut_BUFX2
ABUFX2_insert1071 [\datapath_1.regfile_1.regEn\_16_] \datapath_1.regfile_1.regEn_16_bF$buf2\ d_lut_BUFX2
ABUFX2_insert1070 [\datapath_1.regfile_1.regEn\_16_] \datapath_1.regfile_1.regEn_16_bF$buf3\ d_lut_BUFX2
ABUFX2_insert1069 [\datapath_1.regfile_1.regEn\_16_] \datapath_1.regfile_1.regEn_16_bF$buf4\ d_lut_BUFX2
ABUFX2_insert1068 [\datapath_1.regfile_1.regEn\_16_] \datapath_1.regfile_1.regEn_16_bF$buf5\ d_lut_BUFX2
ABUFX2_insert1067 [\datapath_1.regfile_1.regEn\_16_] \datapath_1.regfile_1.regEn_16_bF$buf6\ d_lut_BUFX2
ABUFX2_insert1066 [\datapath_1.regfile_1.regEn\_16_] \datapath_1.regfile_1.regEn_16_bF$buf7\ d_lut_BUFX2
ABUFX2_insert1065 [_5472_] _5472__bF$buf0 d_lut_BUFX2
ABUFX2_insert1064 [_5472_] _5472__bF$buf1 d_lut_BUFX2
ABUFX2_insert1063 [_5472_] _5472__bF$buf2 d_lut_BUFX2
ABUFX2_insert1062 [_5472_] _5472__bF$buf3 d_lut_BUFX2
ABUFX2_insert1061 [_5531_] _5531__bF$buf0 d_lut_BUFX2
ABUFX2_insert1060 [_5531_] _5531__bF$buf1 d_lut_BUFX2
ABUFX2_insert1059 [_5531_] _5531__bF$buf2 d_lut_BUFX2
ABUFX2_insert1058 [_5531_] _5531__bF$buf3 d_lut_BUFX2
ABUFX2_insert1057 [_5531_] _5531__bF$buf4 d_lut_BUFX2
ABUFX2_insert1056 [_4038_] _4038__bF$buf0 d_lut_BUFX2
ABUFX2_insert1055 [_4038_] _4038__bF$buf1 d_lut_BUFX2
ABUFX2_insert1054 [_4038_] _4038__bF$buf2 d_lut_BUFX2
ABUFX2_insert1053 [_4038_] _4038__bF$buf3 d_lut_BUFX2
ABUFX2_insert1052 [\datapath_1.PCJump\_17_] \datapath_1.PCJump_17_bF$buf0\ d_lut_BUFX2
ABUFX2_insert1051 [\datapath_1.PCJump\_17_] \datapath_1.PCJump_17_bF$buf1\ d_lut_BUFX2
ABUFX2_insert1050 [\datapath_1.PCJump\_17_] \datapath_1.PCJump_17_bF$buf2\ d_lut_BUFX2
ABUFX2_insert1049 [\datapath_1.PCJump\_17_] \datapath_1.PCJump_17_bF$buf3\ d_lut_BUFX2
ABUFX2_insert1048 [\datapath_1.PCJump\_17_] \datapath_1.PCJump_17_bF$buf4\ d_lut_BUFX2
ABUFX2_insert1047 [\datapath_1.regfile_1.regEn\_7_] \datapath_1.regfile_1.regEn_7_bF$buf0\ d_lut_BUFX2
ABUFX2_insert1046 [\datapath_1.regfile_1.regEn\_7_] \datapath_1.regfile_1.regEn_7_bF$buf1\ d_lut_BUFX2
ABUFX2_insert1045 [\datapath_1.regfile_1.regEn\_7_] \datapath_1.regfile_1.regEn_7_bF$buf2\ d_lut_BUFX2
ABUFX2_insert1044 [\datapath_1.regfile_1.regEn\_7_] \datapath_1.regfile_1.regEn_7_bF$buf3\ d_lut_BUFX2
ABUFX2_insert1043 [\datapath_1.regfile_1.regEn\_7_] \datapath_1.regfile_1.regEn_7_bF$buf4\ d_lut_BUFX2
ABUFX2_insert1042 [\datapath_1.regfile_1.regEn\_7_] \datapath_1.regfile_1.regEn_7_bF$buf5\ d_lut_BUFX2
ABUFX2_insert1041 [\datapath_1.regfile_1.regEn\_7_] \datapath_1.regfile_1.regEn_7_bF$buf6\ d_lut_BUFX2
ABUFX2_insert1040 [\datapath_1.regfile_1.regEn\_7_] \datapath_1.regfile_1.regEn_7_bF$buf7\ d_lut_BUFX2
ABUFX2_insert1039 [\datapath_1.mux_wd3.dout\_15_] \datapath_1.mux_wd3.dout_15_bF$buf0\ d_lut_BUFX2
ABUFX2_insert1038 [\datapath_1.mux_wd3.dout\_15_] \datapath_1.mux_wd3.dout_15_bF$buf1\ d_lut_BUFX2
ABUFX2_insert1037 [\datapath_1.mux_wd3.dout\_15_] \datapath_1.mux_wd3.dout_15_bF$buf2\ d_lut_BUFX2
ABUFX2_insert1036 [\datapath_1.mux_wd3.dout\_15_] \datapath_1.mux_wd3.dout_15_bF$buf3\ d_lut_BUFX2
ABUFX2_insert1035 [\datapath_1.mux_wd3.dout\_15_] \datapath_1.mux_wd3.dout_15_bF$buf4\ d_lut_BUFX2
ABUFX2_insert1034 [\datapath_1.regfile_1.regEn\_19_] \datapath_1.regfile_1.regEn_19_bF$buf0\ d_lut_BUFX2
ABUFX2_insert1033 [\datapath_1.regfile_1.regEn\_19_] \datapath_1.regfile_1.regEn_19_bF$buf1\ d_lut_BUFX2
ABUFX2_insert1032 [\datapath_1.regfile_1.regEn\_19_] \datapath_1.regfile_1.regEn_19_bF$buf2\ d_lut_BUFX2
ABUFX2_insert1031 [\datapath_1.regfile_1.regEn\_19_] \datapath_1.regfile_1.regEn_19_bF$buf3\ d_lut_BUFX2
ABUFX2_insert1030 [\datapath_1.regfile_1.regEn\_19_] \datapath_1.regfile_1.regEn_19_bF$buf4\ d_lut_BUFX2
ABUFX2_insert1029 [\datapath_1.regfile_1.regEn\_19_] \datapath_1.regfile_1.regEn_19_bF$buf5\ d_lut_BUFX2
ABUFX2_insert1028 [\datapath_1.regfile_1.regEn\_19_] \datapath_1.regfile_1.regEn_19_bF$buf6\ d_lut_BUFX2
ABUFX2_insert1027 [\datapath_1.regfile_1.regEn\_19_] \datapath_1.regfile_1.regEn_19_bF$buf7\ d_lut_BUFX2
ABUFX2_insert1026 [\datapath_1.regfile_1.regEn\_22_] \datapath_1.regfile_1.regEn_22_bF$buf0\ d_lut_BUFX2
ABUFX2_insert1025 [\datapath_1.regfile_1.regEn\_22_] \datapath_1.regfile_1.regEn_22_bF$buf1\ d_lut_BUFX2
ABUFX2_insert1024 [\datapath_1.regfile_1.regEn\_22_] \datapath_1.regfile_1.regEn_22_bF$buf2\ d_lut_BUFX2
ABUFX2_insert1023 [\datapath_1.regfile_1.regEn\_22_] \datapath_1.regfile_1.regEn_22_bF$buf3\ d_lut_BUFX2
ABUFX2_insert1022 [\datapath_1.regfile_1.regEn\_22_] \datapath_1.regfile_1.regEn_22_bF$buf4\ d_lut_BUFX2
ABUFX2_insert1021 [\datapath_1.regfile_1.regEn\_22_] \datapath_1.regfile_1.regEn_22_bF$buf5\ d_lut_BUFX2
ABUFX2_insert1020 [\datapath_1.regfile_1.regEn\_22_] \datapath_1.regfile_1.regEn_22_bF$buf6\ d_lut_BUFX2
ABUFX2_insert1019 [\datapath_1.regfile_1.regEn\_22_] \datapath_1.regfile_1.regEn_22_bF$buf7\ d_lut_BUFX2
ABUFX2_insert1018 [_5534_] _5534__bF$buf0 d_lut_BUFX2
ABUFX2_insert1017 [_5534_] _5534__bF$buf1 d_lut_BUFX2
ABUFX2_insert1016 [_5534_] _5534__bF$buf2 d_lut_BUFX2
ABUFX2_insert1015 [_5534_] _5534__bF$buf3 d_lut_BUFX2
ABUFX2_insert1014 [_5534_] _5534__bF$buf4 d_lut_BUFX2
ABUFX2_insert1013 [_4079_] _4079__bF$buf0 d_lut_BUFX2
ABUFX2_insert1012 [_4079_] _4079__bF$buf1 d_lut_BUFX2
ABUFX2_insert1011 [_4079_] _4079__bF$buf2 d_lut_BUFX2
ABUFX2_insert1010 [_4079_] _4079__bF$buf3 d_lut_BUFX2
ABUFX2_insert1009 [ALUSrcB_1_] ALUSrcB_1_bF$buf0 d_lut_BUFX2
ABUFX2_insert1008 [ALUSrcB_1_] ALUSrcB_1_bF$buf1 d_lut_BUFX2
ABUFX2_insert1007 [ALUSrcB_1_] ALUSrcB_1_bF$buf2 d_lut_BUFX2
ABUFX2_insert1006 [ALUSrcB_1_] ALUSrcB_1_bF$buf3 d_lut_BUFX2
ABUFX2_insert1005 [ALUSrcB_1_] ALUSrcB_1_bF$buf4 d_lut_BUFX2
ABUFX2_insert1004 [\datapath_1.mux_wd3.dout\_18_] \datapath_1.mux_wd3.dout_18_bF$buf0\ d_lut_BUFX2
ABUFX2_insert1003 [\datapath_1.mux_wd3.dout\_18_] \datapath_1.mux_wd3.dout_18_bF$buf1\ d_lut_BUFX2
ABUFX2_insert1002 [\datapath_1.mux_wd3.dout\_18_] \datapath_1.mux_wd3.dout_18_bF$buf2\ d_lut_BUFX2
ABUFX2_insert1001 [\datapath_1.mux_wd3.dout\_18_] \datapath_1.mux_wd3.dout_18_bF$buf3\ d_lut_BUFX2
ABUFX2_insert1000 [\datapath_1.mux_wd3.dout\_18_] \datapath_1.mux_wd3.dout_18_bF$buf4\ d_lut_BUFX2
ABUFX2_insert999 [_5478_] _5478__bF$buf0 d_lut_BUFX2
ABUFX2_insert998 [_5478_] _5478__bF$buf1 d_lut_BUFX2
ABUFX2_insert997 [_5478_] _5478__bF$buf2 d_lut_BUFX2
ABUFX2_insert996 [_5478_] _5478__bF$buf3 d_lut_BUFX2
ABUFX2_insert995 [\datapath_1.mux_wd3.dout\_21_] \datapath_1.mux_wd3.dout_21_bF$buf0\ d_lut_BUFX2
ABUFX2_insert994 [\datapath_1.mux_wd3.dout\_21_] \datapath_1.mux_wd3.dout_21_bF$buf1\ d_lut_BUFX2
ABUFX2_insert993 [\datapath_1.mux_wd3.dout\_21_] \datapath_1.mux_wd3.dout_21_bF$buf2\ d_lut_BUFX2
ABUFX2_insert992 [\datapath_1.mux_wd3.dout\_21_] \datapath_1.mux_wd3.dout_21_bF$buf3\ d_lut_BUFX2
ABUFX2_insert991 [\datapath_1.mux_wd3.dout\_21_] \datapath_1.mux_wd3.dout_21_bF$buf4\ d_lut_BUFX2
ABUFX2_insert990 [\datapath_1.regfile_1.regEn\_25_] \datapath_1.regfile_1.regEn_25_bF$buf0\ d_lut_BUFX2
ABUFX2_insert989 [\datapath_1.regfile_1.regEn\_25_] \datapath_1.regfile_1.regEn_25_bF$buf1\ d_lut_BUFX2
ABUFX2_insert988 [\datapath_1.regfile_1.regEn\_25_] \datapath_1.regfile_1.regEn_25_bF$buf2\ d_lut_BUFX2
ABUFX2_insert987 [\datapath_1.regfile_1.regEn\_25_] \datapath_1.regfile_1.regEn_25_bF$buf3\ d_lut_BUFX2
ABUFX2_insert986 [\datapath_1.regfile_1.regEn\_25_] \datapath_1.regfile_1.regEn_25_bF$buf4\ d_lut_BUFX2
ABUFX2_insert985 [\datapath_1.regfile_1.regEn\_25_] \datapath_1.regfile_1.regEn_25_bF$buf5\ d_lut_BUFX2
ABUFX2_insert984 [\datapath_1.regfile_1.regEn\_25_] \datapath_1.regfile_1.regEn_25_bF$buf6\ d_lut_BUFX2
ABUFX2_insert983 [\datapath_1.regfile_1.regEn\_25_] \datapath_1.regfile_1.regEn_25_bF$buf7\ d_lut_BUFX2
ABUFX2_insert982 [_3967_] _3967__bF$buf0 d_lut_BUFX2
ABUFX2_insert981 [_3967_] _3967__bF$buf1 d_lut_BUFX2
ABUFX2_insert980 [_3967_] _3967__bF$buf2 d_lut_BUFX2
ABUFX2_insert979 [_3967_] _3967__bF$buf3 d_lut_BUFX2
ABUFX2_insert978 [PCEn] PCEn_bF$buf0 d_lut_BUFX2
ABUFX2_insert977 [PCEn] PCEn_bF$buf1 d_lut_BUFX2
ABUFX2_insert976 [PCEn] PCEn_bF$buf2 d_lut_BUFX2
ABUFX2_insert975 [PCEn] PCEn_bF$buf3 d_lut_BUFX2
ABUFX2_insert974 [PCEn] PCEn_bF$buf4 d_lut_BUFX2
ABUFX2_insert973 [PCEn] PCEn_bF$buf5 d_lut_BUFX2
ABUFX2_insert972 [PCEn] PCEn_bF$buf6 d_lut_BUFX2
ABUFX2_insert971 [PCEn] PCEn_bF$buf7 d_lut_BUFX2
ABUFX2_insert970 [\datapath_1.mux_wd3.dout\_24_] \datapath_1.mux_wd3.dout_24_bF$buf0\ d_lut_BUFX2
ABUFX2_insert969 [\datapath_1.mux_wd3.dout\_24_] \datapath_1.mux_wd3.dout_24_bF$buf1\ d_lut_BUFX2
ABUFX2_insert968 [\datapath_1.mux_wd3.dout\_24_] \datapath_1.mux_wd3.dout_24_bF$buf2\ d_lut_BUFX2
ABUFX2_insert967 [\datapath_1.mux_wd3.dout\_24_] \datapath_1.mux_wd3.dout_24_bF$buf3\ d_lut_BUFX2
ABUFX2_insert966 [\datapath_1.mux_wd3.dout\_24_] \datapath_1.mux_wd3.dout_24_bF$buf4\ d_lut_BUFX2
ABUFX2_insert965 [\datapath_1.regfile_1.regEn\_28_] \datapath_1.regfile_1.regEn_28_bF$buf0\ d_lut_BUFX2
ABUFX2_insert964 [\datapath_1.regfile_1.regEn\_28_] \datapath_1.regfile_1.regEn_28_bF$buf1\ d_lut_BUFX2
ABUFX2_insert963 [\datapath_1.regfile_1.regEn\_28_] \datapath_1.regfile_1.regEn_28_bF$buf2\ d_lut_BUFX2
ABUFX2_insert962 [\datapath_1.regfile_1.regEn\_28_] \datapath_1.regfile_1.regEn_28_bF$buf3\ d_lut_BUFX2
ABUFX2_insert961 [\datapath_1.regfile_1.regEn\_28_] \datapath_1.regfile_1.regEn_28_bF$buf4\ d_lut_BUFX2
ABUFX2_insert960 [\datapath_1.regfile_1.regEn\_28_] \datapath_1.regfile_1.regEn_28_bF$buf5\ d_lut_BUFX2
ABUFX2_insert959 [\datapath_1.regfile_1.regEn\_28_] \datapath_1.regfile_1.regEn_28_bF$buf6\ d_lut_BUFX2
ABUFX2_insert958 [\datapath_1.regfile_1.regEn\_28_] \datapath_1.regfile_1.regEn_28_bF$buf7\ d_lut_BUFX2
ABUFX2_insert957 [\datapath_1.regfile_1.regEn\_31_] \datapath_1.regfile_1.regEn_31_bF$buf0\ d_lut_BUFX2
ABUFX2_insert956 [\datapath_1.regfile_1.regEn\_31_] \datapath_1.regfile_1.regEn_31_bF$buf1\ d_lut_BUFX2
ABUFX2_insert955 [\datapath_1.regfile_1.regEn\_31_] \datapath_1.regfile_1.regEn_31_bF$buf2\ d_lut_BUFX2
ABUFX2_insert954 [\datapath_1.regfile_1.regEn\_31_] \datapath_1.regfile_1.regEn_31_bF$buf3\ d_lut_BUFX2
ABUFX2_insert953 [\datapath_1.regfile_1.regEn\_31_] \datapath_1.regfile_1.regEn_31_bF$buf4\ d_lut_BUFX2
ABUFX2_insert952 [\datapath_1.regfile_1.regEn\_31_] \datapath_1.regfile_1.regEn_31_bF$buf5\ d_lut_BUFX2
ABUFX2_insert951 [\datapath_1.regfile_1.regEn\_31_] \datapath_1.regfile_1.regEn_31_bF$buf6\ d_lut_BUFX2
ABUFX2_insert950 [\datapath_1.regfile_1.regEn\_31_] \datapath_1.regfile_1.regEn_31_bF$buf7\ d_lut_BUFX2
ABUFX2_insert949 [_3036_] _3036__bF$buf0 d_lut_BUFX2
ABUFX2_insert948 [_3036_] _3036__bF$buf1 d_lut_BUFX2
ABUFX2_insert947 [_3036_] _3036__bF$buf2 d_lut_BUFX2
ABUFX2_insert946 [_3036_] _3036__bF$buf3 d_lut_BUFX2
ABUFX2_insert945 [_3036_] _3036__bF$buf4 d_lut_BUFX2
ABUFX2_insert944 [\datapath_1.mux_wd3.dout\_27_] \datapath_1.mux_wd3.dout_27_bF$buf0\ d_lut_BUFX2
ABUFX2_insert943 [\datapath_1.mux_wd3.dout\_27_] \datapath_1.mux_wd3.dout_27_bF$buf1\ d_lut_BUFX2
ABUFX2_insert942 [\datapath_1.mux_wd3.dout\_27_] \datapath_1.mux_wd3.dout_27_bF$buf2\ d_lut_BUFX2
ABUFX2_insert941 [\datapath_1.mux_wd3.dout\_27_] \datapath_1.mux_wd3.dout_27_bF$buf3\ d_lut_BUFX2
ABUFX2_insert940 [\datapath_1.mux_wd3.dout\_27_] \datapath_1.mux_wd3.dout_27_bF$buf4\ d_lut_BUFX2
ABUFX2_insert939 [_3935_] _3935__bF$buf0 d_lut_BUFX2
ABUFX2_insert938 [_3935_] _3935__bF$buf1 d_lut_BUFX2
ABUFX2_insert937 [_3935_] _3935__bF$buf2 d_lut_BUFX2
ABUFX2_insert936 [_3935_] _3935__bF$buf3 d_lut_BUFX2
ABUFX2_insert935 [_3935_] _3935__bF$buf4 d_lut_BUFX2
ABUFX2_insert934 [\datapath_1.mux_wd3.dout\_30_] \datapath_1.mux_wd3.dout_30_bF$buf0\ d_lut_BUFX2
ABUFX2_insert933 [\datapath_1.mux_wd3.dout\_30_] \datapath_1.mux_wd3.dout_30_bF$buf1\ d_lut_BUFX2
ABUFX2_insert932 [\datapath_1.mux_wd3.dout\_30_] \datapath_1.mux_wd3.dout_30_bF$buf2\ d_lut_BUFX2
ABUFX2_insert931 [\datapath_1.mux_wd3.dout\_30_] \datapath_1.mux_wd3.dout_30_bF$buf3\ d_lut_BUFX2
ABUFX2_insert930 [\datapath_1.mux_wd3.dout\_30_] \datapath_1.mux_wd3.dout_30_bF$buf4\ d_lut_BUFX2
ABUFX2_insert929 [\datapath_1.mux_wd3.dout\_2_] \datapath_1.mux_wd3.dout_2_bF$buf0\ d_lut_BUFX2
ABUFX2_insert928 [\datapath_1.mux_wd3.dout\_2_] \datapath_1.mux_wd3.dout_2_bF$buf1\ d_lut_BUFX2
ABUFX2_insert927 [\datapath_1.mux_wd3.dout\_2_] \datapath_1.mux_wd3.dout_2_bF$buf2\ d_lut_BUFX2
ABUFX2_insert926 [\datapath_1.mux_wd3.dout\_2_] \datapath_1.mux_wd3.dout_2_bF$buf3\ d_lut_BUFX2
ABUFX2_insert925 [\datapath_1.mux_wd3.dout\_2_] \datapath_1.mux_wd3.dout_2_bF$buf4\ d_lut_BUFX2
ABUFX2_insert924 [_3882_] _3882__bF$buf0 d_lut_BUFX2
ABUFX2_insert923 [_3882_] _3882__bF$buf1 d_lut_BUFX2
ABUFX2_insert922 [_3882_] _3882__bF$buf2 d_lut_BUFX2
ABUFX2_insert921 [_3882_] _3882__bF$buf3 d_lut_BUFX2
ABUFX2_insert920 [_5549_] _5549__bF$buf0 d_lut_BUFX2
ABUFX2_insert919 [_5549_] _5549__bF$buf1 d_lut_BUFX2
ABUFX2_insert918 [_5549_] _5549__bF$buf2 d_lut_BUFX2
ABUFX2_insert917 [_5549_] _5549__bF$buf3 d_lut_BUFX2
ABUFX2_insert916 [_5549_] _5549__bF$buf4 d_lut_BUFX2
ABUFX2_insert915 [\datapath_1.mux_wd3.dout\_5_] \datapath_1.mux_wd3.dout_5_bF$buf0\ d_lut_BUFX2
ABUFX2_insert914 [\datapath_1.mux_wd3.dout\_5_] \datapath_1.mux_wd3.dout_5_bF$buf1\ d_lut_BUFX2
ABUFX2_insert913 [\datapath_1.mux_wd3.dout\_5_] \datapath_1.mux_wd3.dout_5_bF$buf2\ d_lut_BUFX2
ABUFX2_insert912 [\datapath_1.mux_wd3.dout\_5_] \datapath_1.mux_wd3.dout_5_bF$buf3\ d_lut_BUFX2
ABUFX2_insert911 [\datapath_1.mux_wd3.dout\_5_] \datapath_1.mux_wd3.dout_5_bF$buf4\ d_lut_BUFX2
ABUFX2_insert910 [IRWrite] IRWrite_bF$buf0 d_lut_BUFX2
ABUFX2_insert909 [IRWrite] IRWrite_bF$buf1 d_lut_BUFX2
ABUFX2_insert908 [IRWrite] IRWrite_bF$buf2 d_lut_BUFX2
ABUFX2_insert907 [IRWrite] IRWrite_bF$buf3 d_lut_BUFX2
ABUFX2_insert906 [IRWrite] IRWrite_bF$buf4 d_lut_BUFX2
ABUFX2_insert905 [IRWrite] IRWrite_bF$buf5 d_lut_BUFX2
ABUFX2_insert904 [IRWrite] IRWrite_bF$buf6 d_lut_BUFX2
ABUFX2_insert903 [IRWrite] IRWrite_bF$buf7 d_lut_BUFX2
ABUFX2_insert902 [_5552_] _5552__bF$buf0 d_lut_BUFX2
ABUFX2_insert901 [_5552_] _5552__bF$buf1 d_lut_BUFX2
ABUFX2_insert900 [_5552_] _5552__bF$buf2 d_lut_BUFX2
ABUFX2_insert899 [_5552_] _5552__bF$buf3 d_lut_BUFX2
ABUFX2_insert898 [_3982_] _3982__bF$buf0 d_lut_BUFX2
ABUFX2_insert897 [_3982_] _3982__bF$buf1 d_lut_BUFX2
ABUFX2_insert896 [_3982_] _3982__bF$buf2 d_lut_BUFX2
ABUFX2_insert895 [_3982_] _3982__bF$buf3 d_lut_BUFX2
ABUFX2_insert894 [\datapath_1.mux_wd3.dout\_8_] \datapath_1.mux_wd3.dout_8_bF$buf0\ d_lut_BUFX2
ABUFX2_insert893 [\datapath_1.mux_wd3.dout\_8_] \datapath_1.mux_wd3.dout_8_bF$buf1\ d_lut_BUFX2
ABUFX2_insert892 [\datapath_1.mux_wd3.dout\_8_] \datapath_1.mux_wd3.dout_8_bF$buf2\ d_lut_BUFX2
ABUFX2_insert891 [\datapath_1.mux_wd3.dout\_8_] \datapath_1.mux_wd3.dout_8_bF$buf3\ d_lut_BUFX2
ABUFX2_insert890 [\datapath_1.mux_wd3.dout\_8_] \datapath_1.mux_wd3.dout_8_bF$buf4\ d_lut_BUFX2
ABUFX2_insert889 [_3944_] _3944__bF$buf0 d_lut_BUFX2
ABUFX2_insert888 [_3944_] _3944__bF$buf1 d_lut_BUFX2
ABUFX2_insert887 [_3944_] _3944__bF$buf2 d_lut_BUFX2
ABUFX2_insert886 [_3944_] _3944__bF$buf3 d_lut_BUFX2
ABUFX2_insert885 [_3944_] _3944__bF$buf4 d_lut_BUFX2
ABUFX2_insert884 [_3201_] _3201__bF$buf0 d_lut_BUFX2
ABUFX2_insert883 [_3201_] _3201__bF$buf1 d_lut_BUFX2
ABUFX2_insert882 [_3201_] _3201__bF$buf2 d_lut_BUFX2
ABUFX2_insert881 [_3201_] _3201__bF$buf3 d_lut_BUFX2
ABUFX2_insert880 [_3201_] _3201__bF$buf4 d_lut_BUFX2
ABUFX2_insert879 [_5499_] _5499__bF$buf0 d_lut_BUFX2
ABUFX2_insert878 [_5499_] _5499__bF$buf1 d_lut_BUFX2
ABUFX2_insert877 [_5499_] _5499__bF$buf2 d_lut_BUFX2
ABUFX2_insert876 [_5499_] _5499__bF$buf3 d_lut_BUFX2
ABUFX2_insert875 [_3947_] _3947__bF$buf0 d_lut_BUFX2
ABUFX2_insert874 [_3947_] _3947__bF$buf1 d_lut_BUFX2
ABUFX2_insert873 [_3947_] _3947__bF$buf2 d_lut_BUFX2
ABUFX2_insert872 [_3947_] _3947__bF$buf3 d_lut_BUFX2
ABUFX2_insert871 [_3891_] _3891__bF$buf0 d_lut_BUFX2
ABUFX2_insert870 [_3891_] _3891__bF$buf1 d_lut_BUFX2
ABUFX2_insert869 [_3891_] _3891__bF$buf2 d_lut_BUFX2
ABUFX2_insert868 [_3891_] _3891__bF$buf3 d_lut_BUFX2
ABUFX2_insert867 [_3950_] _3950__bF$buf0 d_lut_BUFX2
ABUFX2_insert866 [_3950_] _3950__bF$buf1 d_lut_BUFX2
ABUFX2_insert865 [_3950_] _3950__bF$buf2 d_lut_BUFX2
ABUFX2_insert864 [_3950_] _3950__bF$buf3 d_lut_BUFX2
ABUFX2_insert863 [\datapath_1.regfile_1.regEn\_11_] \datapath_1.regfile_1.regEn_11_bF$buf0\ d_lut_BUFX2
ABUFX2_insert862 [\datapath_1.regfile_1.regEn\_11_] \datapath_1.regfile_1.regEn_11_bF$buf1\ d_lut_BUFX2
ABUFX2_insert861 [\datapath_1.regfile_1.regEn\_11_] \datapath_1.regfile_1.regEn_11_bF$buf2\ d_lut_BUFX2
ABUFX2_insert860 [\datapath_1.regfile_1.regEn\_11_] \datapath_1.regfile_1.regEn_11_bF$buf3\ d_lut_BUFX2
ABUFX2_insert859 [\datapath_1.regfile_1.regEn\_11_] \datapath_1.regfile_1.regEn_11_bF$buf4\ d_lut_BUFX2
ABUFX2_insert858 [\datapath_1.regfile_1.regEn\_11_] \datapath_1.regfile_1.regEn_11_bF$buf5\ d_lut_BUFX2
ABUFX2_insert857 [\datapath_1.regfile_1.regEn\_11_] \datapath_1.regfile_1.regEn_11_bF$buf6\ d_lut_BUFX2
ABUFX2_insert856 [\datapath_1.regfile_1.regEn\_11_] \datapath_1.regfile_1.regEn_11_bF$buf7\ d_lut_BUFX2
ABUFX2_insert855 [\datapath_1.regfile_1.regEn\_2_] \datapath_1.regfile_1.regEn_2_bF$buf0\ d_lut_BUFX2
ABUFX2_insert854 [\datapath_1.regfile_1.regEn\_2_] \datapath_1.regfile_1.regEn_2_bF$buf1\ d_lut_BUFX2
ABUFX2_insert853 [\datapath_1.regfile_1.regEn\_2_] \datapath_1.regfile_1.regEn_2_bF$buf2\ d_lut_BUFX2
ABUFX2_insert852 [\datapath_1.regfile_1.regEn\_2_] \datapath_1.regfile_1.regEn_2_bF$buf3\ d_lut_BUFX2
ABUFX2_insert851 [\datapath_1.regfile_1.regEn\_2_] \datapath_1.regfile_1.regEn_2_bF$buf4\ d_lut_BUFX2
ABUFX2_insert850 [\datapath_1.regfile_1.regEn\_2_] \datapath_1.regfile_1.regEn_2_bF$buf5\ d_lut_BUFX2
ABUFX2_insert849 [\datapath_1.regfile_1.regEn\_2_] \datapath_1.regfile_1.regEn_2_bF$buf6\ d_lut_BUFX2
ABUFX2_insert848 [\datapath_1.regfile_1.regEn\_2_] \datapath_1.regfile_1.regEn_2_bF$buf7\ d_lut_BUFX2
ABUFX2_insert847 [\datapath_1.mux_wd3.dout\_10_] \datapath_1.mux_wd3.dout_10_bF$buf0\ d_lut_BUFX2
ABUFX2_insert846 [\datapath_1.mux_wd3.dout\_10_] \datapath_1.mux_wd3.dout_10_bF$buf1\ d_lut_BUFX2
ABUFX2_insert845 [\datapath_1.mux_wd3.dout\_10_] \datapath_1.mux_wd3.dout_10_bF$buf2\ d_lut_BUFX2
ABUFX2_insert844 [\datapath_1.mux_wd3.dout\_10_] \datapath_1.mux_wd3.dout_10_bF$buf3\ d_lut_BUFX2
ABUFX2_insert843 [\datapath_1.mux_wd3.dout\_10_] \datapath_1.mux_wd3.dout_10_bF$buf4\ d_lut_BUFX2
ABUFX2_insert842 [\datapath_1.regfile_1.regEn\_14_] \datapath_1.regfile_1.regEn_14_bF$buf0\ d_lut_BUFX2
ABUFX2_insert841 [\datapath_1.regfile_1.regEn\_14_] \datapath_1.regfile_1.regEn_14_bF$buf1\ d_lut_BUFX2
ABUFX2_insert840 [\datapath_1.regfile_1.regEn\_14_] \datapath_1.regfile_1.regEn_14_bF$buf2\ d_lut_BUFX2
ABUFX2_insert839 [\datapath_1.regfile_1.regEn\_14_] \datapath_1.regfile_1.regEn_14_bF$buf3\ d_lut_BUFX2
ABUFX2_insert838 [\datapath_1.regfile_1.regEn\_14_] \datapath_1.regfile_1.regEn_14_bF$buf4\ d_lut_BUFX2
ABUFX2_insert837 [\datapath_1.regfile_1.regEn\_14_] \datapath_1.regfile_1.regEn_14_bF$buf5\ d_lut_BUFX2
ABUFX2_insert836 [\datapath_1.regfile_1.regEn\_14_] \datapath_1.regfile_1.regEn_14_bF$buf6\ d_lut_BUFX2
ABUFX2_insert835 [\datapath_1.regfile_1.regEn\_14_] \datapath_1.regfile_1.regEn_14_bF$buf7\ d_lut_BUFX2
ABUFX2_insert834 [_5526_] _5526__bF$buf0 d_lut_BUFX2
ABUFX2_insert833 [_5526_] _5526__bF$buf1 d_lut_BUFX2
ABUFX2_insert832 [_5526_] _5526__bF$buf2 d_lut_BUFX2
ABUFX2_insert831 [_5526_] _5526__bF$buf3 d_lut_BUFX2
ABUFX2_insert830 [_5526_] _5526__bF$buf4 d_lut_BUFX2
ABUFX2_insert829 [\datapath_1.regfile_1.regEn\_5_] \datapath_1.regfile_1.regEn_5_bF$buf0\ d_lut_BUFX2
ABUFX2_insert828 [\datapath_1.regfile_1.regEn\_5_] \datapath_1.regfile_1.regEn_5_bF$buf1\ d_lut_BUFX2
ABUFX2_insert827 [\datapath_1.regfile_1.regEn\_5_] \datapath_1.regfile_1.regEn_5_bF$buf2\ d_lut_BUFX2
ABUFX2_insert826 [\datapath_1.regfile_1.regEn\_5_] \datapath_1.regfile_1.regEn_5_bF$buf3\ d_lut_BUFX2
ABUFX2_insert825 [\datapath_1.regfile_1.regEn\_5_] \datapath_1.regfile_1.regEn_5_bF$buf4\ d_lut_BUFX2
ABUFX2_insert824 [\datapath_1.regfile_1.regEn\_5_] \datapath_1.regfile_1.regEn_5_bF$buf5\ d_lut_BUFX2
ABUFX2_insert823 [\datapath_1.regfile_1.regEn\_5_] \datapath_1.regfile_1.regEn_5_bF$buf6\ d_lut_BUFX2
ABUFX2_insert822 [\datapath_1.regfile_1.regEn\_5_] \datapath_1.regfile_1.regEn_5_bF$buf7\ d_lut_BUFX2
ABUFX2_insert821 [\datapath_1.mux_wd3.dout\_13_] \datapath_1.mux_wd3.dout_13_bF$buf0\ d_lut_BUFX2
ABUFX2_insert820 [\datapath_1.mux_wd3.dout\_13_] \datapath_1.mux_wd3.dout_13_bF$buf1\ d_lut_BUFX2
ABUFX2_insert819 [\datapath_1.mux_wd3.dout\_13_] \datapath_1.mux_wd3.dout_13_bF$buf2\ d_lut_BUFX2
ABUFX2_insert818 [\datapath_1.mux_wd3.dout\_13_] \datapath_1.mux_wd3.dout_13_bF$buf3\ d_lut_BUFX2
ABUFX2_insert817 [\datapath_1.mux_wd3.dout\_13_] \datapath_1.mux_wd3.dout_13_bF$buf4\ d_lut_BUFX2
ABUFX2_insert816 [\datapath_1.regfile_1.regEn\_17_] \datapath_1.regfile_1.regEn_17_bF$buf0\ d_lut_BUFX2
ABUFX2_insert815 [\datapath_1.regfile_1.regEn\_17_] \datapath_1.regfile_1.regEn_17_bF$buf1\ d_lut_BUFX2
ABUFX2_insert814 [\datapath_1.regfile_1.regEn\_17_] \datapath_1.regfile_1.regEn_17_bF$buf2\ d_lut_BUFX2
ABUFX2_insert813 [\datapath_1.regfile_1.regEn\_17_] \datapath_1.regfile_1.regEn_17_bF$buf3\ d_lut_BUFX2
ABUFX2_insert812 [\datapath_1.regfile_1.regEn\_17_] \datapath_1.regfile_1.regEn_17_bF$buf4\ d_lut_BUFX2
ABUFX2_insert811 [\datapath_1.regfile_1.regEn\_17_] \datapath_1.regfile_1.regEn_17_bF$buf5\ d_lut_BUFX2
ABUFX2_insert810 [\datapath_1.regfile_1.regEn\_17_] \datapath_1.regfile_1.regEn_17_bF$buf6\ d_lut_BUFX2
ABUFX2_insert809 [\datapath_1.regfile_1.regEn\_17_] \datapath_1.regfile_1.regEn_17_bF$buf7\ d_lut_BUFX2
ABUFX2_insert808 [_4001_] _4001__bF$buf0 d_lut_BUFX2
ABUFX2_insert807 [_4001_] _4001__bF$buf1 d_lut_BUFX2
ABUFX2_insert806 [_4001_] _4001__bF$buf2 d_lut_BUFX2
ABUFX2_insert805 [_4001_] _4001__bF$buf3 d_lut_BUFX2
ABUFX2_insert804 [_5570_] _5570__bF$buf0 d_lut_BUFX2
ABUFX2_insert803 [_5570_] _5570__bF$buf1 d_lut_BUFX2
ABUFX2_insert802 [_5570_] _5570__bF$buf2 d_lut_BUFX2
ABUFX2_insert801 [_5570_] _5570__bF$buf3 d_lut_BUFX2
ABUFX2_insert800 [\datapath_1.regfile_1.regEn\_20_] \datapath_1.regfile_1.regEn_20_bF$buf0\ d_lut_BUFX2
ABUFX2_insert799 [\datapath_1.regfile_1.regEn\_20_] \datapath_1.regfile_1.regEn_20_bF$buf1\ d_lut_BUFX2
ABUFX2_insert798 [\datapath_1.regfile_1.regEn\_20_] \datapath_1.regfile_1.regEn_20_bF$buf2\ d_lut_BUFX2
ABUFX2_insert797 [\datapath_1.regfile_1.regEn\_20_] \datapath_1.regfile_1.regEn_20_bF$buf3\ d_lut_BUFX2
ABUFX2_insert796 [\datapath_1.regfile_1.regEn\_20_] \datapath_1.regfile_1.regEn_20_bF$buf4\ d_lut_BUFX2
ABUFX2_insert795 [\datapath_1.regfile_1.regEn\_20_] \datapath_1.regfile_1.regEn_20_bF$buf5\ d_lut_BUFX2
ABUFX2_insert794 [\datapath_1.regfile_1.regEn\_20_] \datapath_1.regfile_1.regEn_20_bF$buf6\ d_lut_BUFX2
ABUFX2_insert793 [\datapath_1.regfile_1.regEn\_20_] \datapath_1.regfile_1.regEn_20_bF$buf7\ d_lut_BUFX2
ABUFX2_insert792 [_5532_] _5532__bF$buf0 d_lut_BUFX2
ABUFX2_insert791 [_5532_] _5532__bF$buf1 d_lut_BUFX2
ABUFX2_insert790 [_5532_] _5532__bF$buf2 d_lut_BUFX2
ABUFX2_insert789 [_5532_] _5532__bF$buf3 d_lut_BUFX2
ABUFX2_insert788 [_3997_] _3997__bF$buf0 d_lut_BUFX2
ABUFX2_insert787 [_3997_] _3997__bF$buf1 d_lut_BUFX2
ABUFX2_insert786 [_3997_] _3997__bF$buf2 d_lut_BUFX2
ABUFX2_insert785 [_3997_] _3997__bF$buf3 d_lut_BUFX2
ABUFX2_insert784 [ALUSrcA] ALUSrcA_bF$buf0 d_lut_BUFX2
ABUFX2_insert783 [ALUSrcA] ALUSrcA_bF$buf1 d_lut_BUFX2
ABUFX2_insert782 [ALUSrcA] ALUSrcA_bF$buf2 d_lut_BUFX2
ABUFX2_insert781 [ALUSrcA] ALUSrcA_bF$buf3 d_lut_BUFX2
ABUFX2_insert780 [ALUSrcA] ALUSrcA_bF$buf4 d_lut_BUFX2
ABUFX2_insert779 [ALUSrcA] ALUSrcA_bF$buf5 d_lut_BUFX2
ABUFX2_insert778 [ALUSrcA] ALUSrcA_bF$buf6 d_lut_BUFX2
ABUFX2_insert777 [ALUSrcA] ALUSrcA_bF$buf7 d_lut_BUFX2
ABUFX2_insert776 [\datapath_1.regfile_1.regEn\_8_] \datapath_1.regfile_1.regEn_8_bF$buf0\ d_lut_BUFX2
ABUFX2_insert775 [\datapath_1.regfile_1.regEn\_8_] \datapath_1.regfile_1.regEn_8_bF$buf1\ d_lut_BUFX2
ABUFX2_insert774 [\datapath_1.regfile_1.regEn\_8_] \datapath_1.regfile_1.regEn_8_bF$buf2\ d_lut_BUFX2
ABUFX2_insert773 [\datapath_1.regfile_1.regEn\_8_] \datapath_1.regfile_1.regEn_8_bF$buf3\ d_lut_BUFX2
ABUFX2_insert772 [\datapath_1.regfile_1.regEn\_8_] \datapath_1.regfile_1.regEn_8_bF$buf4\ d_lut_BUFX2
ABUFX2_insert771 [\datapath_1.regfile_1.regEn\_8_] \datapath_1.regfile_1.regEn_8_bF$buf5\ d_lut_BUFX2
ABUFX2_insert770 [\datapath_1.regfile_1.regEn\_8_] \datapath_1.regfile_1.regEn_8_bF$buf6\ d_lut_BUFX2
ABUFX2_insert769 [\datapath_1.regfile_1.regEn\_8_] \datapath_1.regfile_1.regEn_8_bF$buf7\ d_lut_BUFX2
ABUFX2_insert768 [\datapath_1.mux_wd3.dout\_16_] \datapath_1.mux_wd3.dout_16_bF$buf0\ d_lut_BUFX2
ABUFX2_insert767 [\datapath_1.mux_wd3.dout\_16_] \datapath_1.mux_wd3.dout_16_bF$buf1\ d_lut_BUFX2
ABUFX2_insert766 [\datapath_1.mux_wd3.dout\_16_] \datapath_1.mux_wd3.dout_16_bF$buf2\ d_lut_BUFX2
ABUFX2_insert765 [\datapath_1.mux_wd3.dout\_16_] \datapath_1.mux_wd3.dout_16_bF$buf3\ d_lut_BUFX2
ABUFX2_insert764 [\datapath_1.mux_wd3.dout\_16_] \datapath_1.mux_wd3.dout_16_bF$buf4\ d_lut_BUFX2
ABUFX2_insert763 [_3924_] _3924__bF$buf0 d_lut_BUFX2
ABUFX2_insert762 [_3924_] _3924__bF$buf1 d_lut_BUFX2
ABUFX2_insert761 [_3924_] _3924__bF$buf2 d_lut_BUFX2
ABUFX2_insert760 [_3924_] _3924__bF$buf3 d_lut_BUFX2
ABUFX2_insert759 [_3198_] _3198__bF$buf0 d_lut_BUFX2
ABUFX2_insert758 [_3198_] _3198__bF$buf1 d_lut_BUFX2
ABUFX2_insert757 [_3198_] _3198__bF$buf2 d_lut_BUFX2
ABUFX2_insert756 [_3198_] _3198__bF$buf3 d_lut_BUFX2
ABUFX2_insert755 [_3198_] _3198__bF$buf4 d_lut_BUFX2
ABUFX2_insert754 [\datapath_1.regfile_1.regEn\_23_] \datapath_1.regfile_1.regEn_23_bF$buf0\ d_lut_BUFX2
ABUFX2_insert753 [\datapath_1.regfile_1.regEn\_23_] \datapath_1.regfile_1.regEn_23_bF$buf1\ d_lut_BUFX2
ABUFX2_insert752 [\datapath_1.regfile_1.regEn\_23_] \datapath_1.regfile_1.regEn_23_bF$buf2\ d_lut_BUFX2
ABUFX2_insert751 [\datapath_1.regfile_1.regEn\_23_] \datapath_1.regfile_1.regEn_23_bF$buf3\ d_lut_BUFX2
ABUFX2_insert750 [\datapath_1.regfile_1.regEn\_23_] \datapath_1.regfile_1.regEn_23_bF$buf4\ d_lut_BUFX2
ABUFX2_insert749 [\datapath_1.regfile_1.regEn\_23_] \datapath_1.regfile_1.regEn_23_bF$buf5\ d_lut_BUFX2
ABUFX2_insert748 [\datapath_1.regfile_1.regEn\_23_] \datapath_1.regfile_1.regEn_23_bF$buf6\ d_lut_BUFX2
ABUFX2_insert747 [\datapath_1.regfile_1.regEn\_23_] \datapath_1.regfile_1.regEn_23_bF$buf7\ d_lut_BUFX2
ABUFX2_insert746 [_5535_] _5535__bF$buf0 d_lut_BUFX2
ABUFX2_insert745 [_5535_] _5535__bF$buf1 d_lut_BUFX2
ABUFX2_insert744 [_5535_] _5535__bF$buf2 d_lut_BUFX2