* NGSPICE file created from mips.ext - technology: scmos

* Black-box entry subcircuit for FILL abstract view
.subckt FILL gnd vdd
.ends

* Black-box entry subcircuit for NAND2X1 abstract view
.subckt NAND2X1 A B gnd Y vdd
.ends

* Black-box entry subcircuit for DFFSR abstract view
.subckt DFFSR Q CLK R S D gnd vdd
.ends

* Black-box entry subcircuit for INVX1 abstract view
.subckt INVX1 A gnd Y vdd
.ends

* Black-box entry subcircuit for BUFX2 abstract view
.subckt BUFX2 A gnd Y vdd
.ends

* Black-box entry subcircuit for OAI21X1 abstract view
.subckt OAI21X1 A B C gnd Y vdd
.ends

* Black-box entry subcircuit for NOR2X1 abstract view
.subckt NOR2X1 A B gnd Y vdd
.ends

* Black-box entry subcircuit for OR2X2 abstract view
.subckt OR2X2 A B gnd Y vdd
.ends

* Black-box entry subcircuit for OAI22X1 abstract view
.subckt OAI22X1 A B C D gnd Y vdd
.ends

* Black-box entry subcircuit for AOI22X1 abstract view
.subckt AOI22X1 A B C D gnd Y vdd
.ends

* Black-box entry subcircuit for NAND3X1 abstract view
.subckt NAND3X1 A B C gnd Y vdd
.ends

* Black-box entry subcircuit for XNOR2X1 abstract view
.subckt XNOR2X1 A B gnd Y vdd
.ends

* Black-box entry subcircuit for NOR3X1 abstract view
.subckt NOR3X1 A B C gnd Y vdd
.ends

* Black-box entry subcircuit for AOI21X1 abstract view
.subckt AOI21X1 A B C gnd Y vdd
.ends

* Black-box entry subcircuit for INVX8 abstract view
.subckt INVX8 A gnd Y vdd
.ends

* Black-box entry subcircuit for CLKBUF1 abstract view
.subckt CLKBUF1 A gnd Y vdd
.ends

* Black-box entry subcircuit for INVX2 abstract view
.subckt INVX2 A gnd Y vdd
.ends

* Black-box entry subcircuit for AND2X2 abstract view
.subckt AND2X2 A B gnd Y vdd
.ends

* Black-box entry subcircuit for INVX4 abstract view
.subckt INVX4 A gnd Y vdd
.ends

* Black-box entry subcircuit for XOR2X1 abstract view
.subckt XOR2X1 A B gnd Y vdd
.ends

.subckt mips gnd vdd MemRead MemWrite clk memoryAddress[31] memoryAddress[30] memoryAddress[29]
+ memoryAddress[28] memoryAddress[27] memoryAddress[26] memoryAddress[25] memoryAddress[24]
+ memoryAddress[23] memoryAddress[22] memoryAddress[21] memoryAddress[20] memoryAddress[19]
+ memoryAddress[18] memoryAddress[17] memoryAddress[16] memoryAddress[15] memoryAddress[14]
+ memoryAddress[13] memoryAddress[12] memoryAddress[11] memoryAddress[10] memoryAddress[9]
+ memoryAddress[8] memoryAddress[7] memoryAddress[6] memoryAddress[5] memoryAddress[4]
+ memoryAddress[3] memoryAddress[2] memoryAddress[1] memoryAddress[0] memoryOutData[31]
+ memoryOutData[30] memoryOutData[29] memoryOutData[28] memoryOutData[27] memoryOutData[26]
+ memoryOutData[25] memoryOutData[24] memoryOutData[23] memoryOutData[22] memoryOutData[21]
+ memoryOutData[20] memoryOutData[19] memoryOutData[18] memoryOutData[17] memoryOutData[16]
+ memoryOutData[15] memoryOutData[14] memoryOutData[13] memoryOutData[12] memoryOutData[11]
+ memoryOutData[10] memoryOutData[9] memoryOutData[8] memoryOutData[7] memoryOutData[6]
+ memoryOutData[5] memoryOutData[4] memoryOutData[3] memoryOutData[2] memoryOutData[1]
+ memoryOutData[0] memoryWriteData[31] memoryWriteData[30] memoryWriteData[29] memoryWriteData[28]
+ memoryWriteData[27] memoryWriteData[26] memoryWriteData[25] memoryWriteData[24]
+ memoryWriteData[23] memoryWriteData[22] memoryWriteData[21] memoryWriteData[20]
+ memoryWriteData[19] memoryWriteData[18] memoryWriteData[17] memoryWriteData[16]
+ memoryWriteData[15] memoryWriteData[14] memoryWriteData[13] memoryWriteData[12]
+ memoryWriteData[11] memoryWriteData[10] memoryWriteData[9] memoryWriteData[8] memoryWriteData[7]
+ memoryWriteData[6] memoryWriteData[5] memoryWriteData[4] memoryWriteData[3] memoryWriteData[2]
+ memoryWriteData[1] memoryWriteData[0] rst
XFILL_5__15675_ gnd vdd FILL
XFILL_5__12887_ gnd vdd FILL
XFILL_2__14515_ gnd vdd FILL
XFILL_4__10548_ gnd vdd FILL
XFILL_2__9369_ gnd vdd FILL
XFILL_1__13156_ gnd vdd FILL
XFILL_0__12906_ gnd vdd FILL
XFILL_2__11727_ gnd vdd FILL
XFILL_1__10368_ gnd vdd FILL
XSFILL54840x78050 gnd vdd FILL
XSFILL54040x59050 gnd vdd FILL
XFILL_2__15495_ gnd vdd FILL
XFILL_6__11108_ gnd vdd FILL
XFILL_0__13886_ gnd vdd FILL
XFILL_5__9078_ gnd vdd FILL
XFILL_5__14626_ gnd vdd FILL
XFILL_0__8384_ gnd vdd FILL
XSFILL94440x64050 gnd vdd FILL
XFILL_3__15805_ gnd vdd FILL
XFILL_4__16055_ gnd vdd FILL
XFILL_5__11838_ gnd vdd FILL
XFILL_4__13267_ gnd vdd FILL
XFILL_1__12107_ gnd vdd FILL
XFILL_3__7113_ gnd vdd FILL
XFILL_2__14446_ gnd vdd FILL
XFILL_0__15625_ gnd vdd FILL
XFILL_0__12837_ gnd vdd FILL
XFILL_1__13087_ gnd vdd FILL
XFILL_3__13997_ gnd vdd FILL
XFILL_2__11658_ gnd vdd FILL
XFILL_3__8093_ gnd vdd FILL
XFILL_1__10299_ gnd vdd FILL
XFILL_4__15006_ gnd vdd FILL
XSFILL95080x30050 gnd vdd FILL
XFILL_6__9891_ gnd vdd FILL
XFILL_0__7335_ gnd vdd FILL
XFILL_4__12218_ gnd vdd FILL
XFILL_5__14557_ gnd vdd FILL
X_7963_ _7972_/A _7451_/B gnd _7963_/Y vdd NAND2X1
XSFILL69240x40050 gnd vdd FILL
XFILL_5__11769_ gnd vdd FILL
XFILL_3__15736_ gnd vdd FILL
XFILL_3__7044_ gnd vdd FILL
XFILL_1__12038_ gnd vdd FILL
XSFILL33880x17050 gnd vdd FILL
XFILL_0__15556_ gnd vdd FILL
XFILL_2__14377_ gnd vdd FILL
XFILL_2__11589_ gnd vdd FILL
XFILL_6__8842_ gnd vdd FILL
XFILL_0__12768_ gnd vdd FILL
X_9702_ _9702_/Q _7021_/CLK _9062_/R vdd _9702_/D gnd vdd DFFSR
X_6914_ _7002_/Q gnd _6916_/A vdd INVX1
XFILL_5__13508_ gnd vdd FILL
XFILL_5__14488_ gnd vdd FILL
XFILL_2__16116_ gnd vdd FILL
XFILL_4__12149_ gnd vdd FILL
XFILL_2__13328_ gnd vdd FILL
XFILL_3__15667_ gnd vdd FILL
X_7894_ _7894_/Q _9436_/CLK _9454_/R vdd _7894_/D gnd vdd DFFSR
XFILL_0__14507_ gnd vdd FILL
XSFILL48920x39050 gnd vdd FILL
XFILL_3__12879_ gnd vdd FILL
XFILL_0__11719_ gnd vdd FILL
XFILL_0__9005_ gnd vdd FILL
XFILL_0__15487_ gnd vdd FILL
XFILL_0__12699_ gnd vdd FILL
XFILL_5__16227_ gnd vdd FILL
XFILL_3__14618_ gnd vdd FILL
X_6845_ _6845_/A gnd memoryAddress[7] vdd BUFX2
X_9633_ _9613_/B _9633_/B gnd _9633_/Y vdd NAND2X1
XFILL_5__13439_ gnd vdd FILL
XFILL_0__7197_ gnd vdd FILL
XFILL_2__16047_ gnd vdd FILL
XFILL_2__13259_ gnd vdd FILL
XFILL_3__15598_ gnd vdd FILL
XFILL_0__14438_ gnd vdd FILL
XFILL_3__8995_ gnd vdd FILL
XSFILL89960x10050 gnd vdd FILL
XSFILL49000x48050 gnd vdd FILL
XFILL_1__13989_ gnd vdd FILL
XFILL_4__15908_ gnd vdd FILL
X_9564_ _9564_/Q _8022_/CLK _9046_/R vdd _9564_/D gnd vdd DFFSR
XFILL_5__16158_ gnd vdd FILL
XFILL_3__14549_ gnd vdd FILL
XFILL_3__7946_ gnd vdd FILL
XFILL_1__15728_ gnd vdd FILL
XFILL_5_BUFX2_insert403 gnd vdd FILL
XFILL_0__14369_ gnd vdd FILL
XFILL_5_BUFX2_insert414 gnd vdd FILL
X_8515_ _8513_/Y _8469_/A _8515_/C gnd _8559_/D vdd OAI21X1
XFILL_5__15109_ gnd vdd FILL
XSFILL109560x59050 gnd vdd FILL
XFILL_5_BUFX2_insert425 gnd vdd FILL
XFILL_5__16089_ gnd vdd FILL
X_9495_ _9569_/Q gnd _9495_/Y vdd INVX1
XFILL_1__6961_ gnd vdd FILL
XFILL_4__15839_ gnd vdd FILL
XFILL_0__16108_ gnd vdd FILL
XFILL_5_BUFX2_insert436 gnd vdd FILL
XFILL_1__15659_ gnd vdd FILL
XFILL_3__7877_ gnd vdd FILL
XFILL_5_BUFX2_insert447 gnd vdd FILL
XFILL_5_BUFX2_insert458 gnd vdd FILL
XFILL_0__9907_ gnd vdd FILL
XFILL_1__8700_ gnd vdd FILL
XFILL_3__16219_ gnd vdd FILL
XFILL_6__7586_ gnd vdd FILL
X_8446_ _8444_/Y _8494_/B _8446_/C gnd _8446_/Y vdd OAI21X1
XFILL_5_BUFX2_insert469 gnd vdd FILL
XFILL_3__9616_ gnd vdd FILL
XFILL_1__9680_ gnd vdd FILL
XFILL_0__16039_ gnd vdd FILL
XFILL_1__6892_ gnd vdd FILL
XFILL_1__8631_ gnd vdd FILL
X_8377_ _8360_/B _8377_/B gnd _8377_/Y vdd NAND2X1
XFILL_3__9547_ gnd vdd FILL
XFILL_4__8340_ gnd vdd FILL
X_7328_ _7328_/A gnd _7330_/A vdd INVX1
XFILL_0__9769_ gnd vdd FILL
XFILL_4__8271_ gnd vdd FILL
XFILL_3__9478_ gnd vdd FILL
XSFILL18760x58050 gnd vdd FILL
X_7259_ _7173_/A _7143_/CLK _7015_/R vdd _7259_/D gnd vdd DFFSR
XFILL_4__7222_ gnd vdd FILL
XSFILL8600x68050 gnd vdd FILL
XFILL_1__8493_ gnd vdd FILL
XSFILL58360x44050 gnd vdd FILL
XFILL_6__8138_ gnd vdd FILL
XSFILL33800x61050 gnd vdd FILL
XFILL_1__7444_ gnd vdd FILL
XFILL_2_BUFX2_insert304 gnd vdd FILL
XFILL_2_BUFX2_insert315 gnd vdd FILL
XFILL_1__7375_ gnd vdd FILL
XSFILL23880x49050 gnd vdd FILL
XFILL_2_BUFX2_insert326 gnd vdd FILL
X_11900_ _11900_/A _12355_/A gnd _11901_/C vdd NAND2X1
XFILL_4__7084_ gnd vdd FILL
XFILL_2_BUFX2_insert337 gnd vdd FILL
XFILL_1__9114_ gnd vdd FILL
XFILL_2_BUFX2_insert348 gnd vdd FILL
X_12880_ _12938_/Q gnd _12880_/Y vdd INVX1
XFILL_2_BUFX2_insert359 gnd vdd FILL
XFILL111960x71050 gnd vdd FILL
XFILL112440x78050 gnd vdd FILL
X_11831_ _11238_/Y _11374_/Y gnd _11835_/A vdd NOR2X1
XFILL_1__9045_ gnd vdd FILL
X_14550_ _9965_/Q gnd _14550_/Y vdd INVX1
X_11762_ _11761_/Y _11762_/B gnd _11763_/C vdd OR2X2
X_13501_ _15095_/D _14068_/C _14342_/B _13499_/Y gnd _13502_/B vdd OAI22X1
X_10713_ _10623_/A _8921_/CLK _8942_/R vdd _10713_/D gnd vdd DFFSR
XBUFX2_insert303 _12414_/Y gnd _9788_/B vdd BUFX2
XFILL_4__7986_ gnd vdd FILL
X_14481_ _10859_/Q _14877_/D _14481_/C _7019_/Q gnd _14483_/A vdd AOI22X1
XBUFX2_insert314 _13454_/Y gnd _14030_/C vdd BUFX2
X_11693_ _11066_/Y _11366_/B gnd _11693_/Y vdd NAND2X1
XFILL_6_BUFX2_insert270 gnd vdd FILL
XFILL_4__9725_ gnd vdd FILL
XBUFX2_insert325 _13345_/Y gnd _9941_/B vdd BUFX2
X_16220_ _16220_/A _16220_/B gnd _16244_/A vdd NOR2X1
XFILL_4__6937_ gnd vdd FILL
XSFILL18840x38050 gnd vdd FILL
XBUFX2_insert336 _13494_/Y gnd _14037_/B vdd BUFX2
X_13432_ _13381_/A _13423_/B _13407_/Y gnd _13432_/Y vdd NAND3X1
XBUFX2_insert347 _10927_/Y gnd _12255_/A vdd BUFX2
XSFILL84280x14050 gnd vdd FILL
XBUFX2_insert358 _13306_/Y gnd _8006_/B vdd BUFX2
X_10644_ _10720_/Q gnd _10646_/A vdd INVX1
XFILL_2__8740_ gnd vdd FILL
XBUFX2_insert369 _13338_/Y gnd _9535_/A vdd BUFX2
XFILL_4__9656_ gnd vdd FILL
XFILL_5_CLKBUF1_insert204 gnd vdd FILL
XFILL_5_CLKBUF1_insert215 gnd vdd FILL
XFILL_4__6868_ gnd vdd FILL
X_16151_ _16150_/Y _16151_/B _16309_/A _16151_/D gnd _16151_/Y vdd OAI22X1
X_10575_ _10575_/A _10535_/A _10575_/C gnd _10575_/Y vdd OAI21X1
X_13363_ _13220_/A _13363_/B gnd _13363_/Y vdd NAND2X1
XSFILL69080x75050 gnd vdd FILL
XFILL_5_BUFX2_insert970 gnd vdd FILL
XFILL_1__9878_ gnd vdd FILL
XFILL_4__8607_ gnd vdd FILL
XSFILL85160x42050 gnd vdd FILL
X_15102_ _15102_/A _15102_/B _15099_/Y gnd _15103_/A vdd NAND3X1
XFILL_5__8380_ gnd vdd FILL
X_12314_ _12311_/Y _12312_/Y _12314_/C gnd _12314_/Y vdd NAND3X1
XFILL_5_BUFX2_insert981 gnd vdd FILL
XFILL_5_BUFX2_insert992 gnd vdd FILL
XFILL_3__10230_ gnd vdd FILL
XFILL_6__11390_ gnd vdd FILL
X_16082_ _16082_/A _15527_/C _15449_/C _14683_/A gnd _16084_/A vdd OAI22X1
X_13294_ _13294_/A gnd _13294_/Y vdd INVX1
XFILL_2__7622_ gnd vdd FILL
XFILL_1__8829_ gnd vdd FILL
XSFILL22920x65050 gnd vdd FILL
XFILL_2__10960_ gnd vdd FILL
XFILL_5__7331_ gnd vdd FILL
XFILL_0__10050_ gnd vdd FILL
X_15033_ _12813_/Q _12812_/Q gnd _15212_/B vdd NOR2X1
X_12245_ _6877_/A _12249_/B _12249_/C _12710_/A gnd _12246_/C vdd AOI22X1
XSFILL64840x4050 gnd vdd FILL
XFILL_4__11520_ gnd vdd FILL
XFILL_3__10161_ gnd vdd FILL
XFILL_2__7553_ gnd vdd FILL
XFILL_1__11340_ gnd vdd FILL
XFILL_2__10891_ gnd vdd FILL
XFILL_4__8469_ gnd vdd FILL
X_12176_ _12123_/B _12176_/B gnd _12176_/Y vdd NAND2X1
XFILL_5__13790_ gnd vdd FILL
XFILL_4__11451_ gnd vdd FILL
XFILL_2__12630_ gnd vdd FILL
XFILL_5__9001_ gnd vdd FILL
XFILL_2__7484_ gnd vdd FILL
XFILL_1__11271_ gnd vdd FILL
XFILL_5__12741_ gnd vdd FILL
XFILL_4__10402_ gnd vdd FILL
XFILL_5__7193_ gnd vdd FILL
X_11127_ _12174_/Y _12294_/Y gnd _11591_/A vdd NOR2X1
XFILL_4__14170_ gnd vdd FILL
XFILL_1__13010_ gnd vdd FILL
XFILL_3__13920_ gnd vdd FILL
XFILL_2__9223_ gnd vdd FILL
XFILL_4__11382_ gnd vdd FILL
XFILL_0__13740_ gnd vdd FILL
XFILL_0__10952_ gnd vdd FILL
X_15935_ _8376_/A _15978_/B _16293_/A _7148_/Q gnd _15936_/B vdd AOI22X1
XFILL_4__13121_ gnd vdd FILL
X_11058_ _12278_/Y _12162_/Y gnd _11061_/C vdd XNOR2X1
XSFILL114440x12050 gnd vdd FILL
XFILL_2__14300_ gnd vdd FILL
XFILL_5__15460_ gnd vdd FILL
XFILL_3__13851_ gnd vdd FILL
XFILL_2__9154_ gnd vdd FILL
XFILL_2__11512_ gnd vdd FILL
XFILL_2__12492_ gnd vdd FILL
XFILL_1__10153_ gnd vdd FILL
XFILL_2__15280_ gnd vdd FILL
XSFILL94360x79050 gnd vdd FILL
XFILL_0__13671_ gnd vdd FILL
X_10009_ _10007_/Y _10024_/B _10008_/Y gnd _10009_/Y vdd OAI21X1
XFILL_0__10883_ gnd vdd FILL
XFILL_5__14411_ gnd vdd FILL
XFILL_5__11623_ gnd vdd FILL
XFILL_5__15391_ gnd vdd FILL
XFILL_2__8105_ gnd vdd FILL
X_15866_ _15860_/Y _15866_/B _15866_/C gnd _15891_/A vdd NOR3X1
XFILL_0__15410_ gnd vdd FILL
XFILL_2__14231_ gnd vdd FILL
XFILL_4__10264_ gnd vdd FILL
XFILL_2__11443_ gnd vdd FILL
XFILL_0__12622_ gnd vdd FILL
XFILL_2_BUFX2_insert860 gnd vdd FILL
XFILL_3__13782_ gnd vdd FILL
XFILL_2__9085_ gnd vdd FILL
XFILL_0__16390_ gnd vdd FILL
XFILL_2_BUFX2_insert871 gnd vdd FILL
XFILL_1__14961_ gnd vdd FILL
XFILL_5__9903_ gnd vdd FILL
XSFILL99400x16050 gnd vdd FILL
XFILL_0__7120_ gnd vdd FILL
XFILL_3__10994_ gnd vdd FILL
XSFILL69160x55050 gnd vdd FILL
X_14817_ _9418_/A gnd _14818_/D vdd INVX1
XFILL_4__12003_ gnd vdd FILL
XFILL_5__14342_ gnd vdd FILL
XFILL_6__12913_ gnd vdd FILL
XFILL_3__15521_ gnd vdd FILL
XFILL_2_BUFX2_insert882 gnd vdd FILL
XFILL_5__11554_ gnd vdd FILL
XFILL_2_BUFX2_insert893 gnd vdd FILL
XFILL_3__12733_ gnd vdd FILL
X_15797_ _15797_/A gnd _15798_/D vdd INVX1
XFILL_0__15341_ gnd vdd FILL
XFILL_2__14162_ gnd vdd FILL
XFILL_4__10195_ gnd vdd FILL
XFILL_1__13912_ gnd vdd FILL
XFILL_2__11374_ gnd vdd FILL
XFILL_0__7051_ gnd vdd FILL
XFILL_5__10505_ gnd vdd FILL
XFILL_1__14892_ gnd vdd FILL
X_14748_ _8945_/Q gnd _14748_/Y vdd INVX1
XFILL_5__14273_ gnd vdd FILL
XFILL_2__13113_ gnd vdd FILL
XFILL_3__15452_ gnd vdd FILL
XFILL_5__11485_ gnd vdd FILL
XFILL_2__10325_ gnd vdd FILL
XFILL_2__14093_ gnd vdd FILL
XFILL_0__11504_ gnd vdd FILL
XFILL_1__13843_ gnd vdd FILL
XFILL_0__15272_ gnd vdd FILL
XFILL_5__9765_ gnd vdd FILL
XFILL_5__13224_ gnd vdd FILL
XFILL_5__16012_ gnd vdd FILL
XFILL_0__12484_ gnd vdd FILL
XSFILL74280x46050 gnd vdd FILL
XFILL_5__10436_ gnd vdd FILL
XFILL_4_BUFX2_insert3 gnd vdd FILL
XFILL_5__6977_ gnd vdd FILL
XFILL_3__14403_ gnd vdd FILL
XFILL_3__7800_ gnd vdd FILL
XFILL_2__13044_ gnd vdd FILL
XFILL_4__13954_ gnd vdd FILL
XFILL_3__11615_ gnd vdd FILL
X_14679_ _14678_/Y _14679_/B gnd _14680_/C vdd NOR2X1
XFILL_2__10256_ gnd vdd FILL
XFILL_3__15383_ gnd vdd FILL
XFILL_0__14223_ gnd vdd FILL
XFILL_3__12595_ gnd vdd FILL
XFILL_5__8716_ gnd vdd FILL
XFILL_2__9987_ gnd vdd FILL
XFILL_3__8780_ gnd vdd FILL
XFILL_0__11435_ gnd vdd FILL
XFILL_1__13774_ gnd vdd FILL
X_16418_ _16324_/A _8679_/CLK _7131_/R vdd _16326_/Y gnd vdd DFFSR
XFILL_5__13155_ gnd vdd FILL
XSFILL49080x22050 gnd vdd FILL
XFILL_5__10367_ gnd vdd FILL
XSFILL89320x68050 gnd vdd FILL
XFILL_3__14334_ gnd vdd FILL
XFILL_4__12905_ gnd vdd FILL
XFILL_4__13885_ gnd vdd FILL
XFILL_1__15513_ gnd vdd FILL
XFILL_3__7731_ gnd vdd FILL
XFILL_3__11546_ gnd vdd FILL
XFILL_1__12725_ gnd vdd FILL
XFILL_2__10187_ gnd vdd FILL
XFILL_0__14154_ gnd vdd FILL
X_8300_ _8248_/A _7661_/CLK _8819_/R vdd _8250_/Y gnd vdd DFFSR
XFILL_5__12106_ gnd vdd FILL
XBUFX2_insert870 _13379_/Y gnd _14738_/A vdd BUFX2
XFILL_5__8647_ gnd vdd FILL
XFILL_0__11366_ gnd vdd FILL
XBUFX2_insert881 _12216_/Y gnd _12269_/C vdd BUFX2
X_16349_ gnd gnd gnd _16349_/Y vdd NAND2X1
X_9280_ _9278_/Y _9232_/B _9279_/Y gnd _9326_/D vdd OAI21X1
XBUFX2_insert892 _12369_/Y gnd _9487_/B vdd BUFX2
XFILL_4__15624_ gnd vdd FILL
XFILL_4__12836_ gnd vdd FILL
XFILL_5__13086_ gnd vdd FILL
XFILL_0__7953_ gnd vdd FILL
XFILL_3__14265_ gnd vdd FILL
XFILL_0__13105_ gnd vdd FILL
XFILL_5__10298_ gnd vdd FILL
XFILL_1__12656_ gnd vdd FILL
XFILL_2__8869_ gnd vdd FILL
XFILL_0__10317_ gnd vdd FILL
XFILL_3__11477_ gnd vdd FILL
XFILL_1__15444_ gnd vdd FILL
XFILL_2__14995_ gnd vdd FILL
XFILL_0__14085_ gnd vdd FILL
XFILL_3__16004_ gnd vdd FILL
XFILL_5__8578_ gnd vdd FILL
X_8231_ _8232_/B _7079_/B gnd _8231_/Y vdd NAND2X1
XFILL_0__6904_ gnd vdd FILL
XFILL_5__12037_ gnd vdd FILL
XFILL_0__11297_ gnd vdd FILL
XFILL_3__13216_ gnd vdd FILL
XFILL_4__15555_ gnd vdd FILL
XFILL_3__9401_ gnd vdd FILL
XFILL_3__10428_ gnd vdd FILL
XFILL_4__12767_ gnd vdd FILL
XFILL_0__7884_ gnd vdd FILL
XFILL_3__14196_ gnd vdd FILL
XFILL_0__13036_ gnd vdd FILL
XFILL_1__11607_ gnd vdd FILL
XFILL_6__9110_ gnd vdd FILL
XFILL_2__13946_ gnd vdd FILL
XFILL_0__10248_ gnd vdd FILL
XFILL_1__12587_ gnd vdd FILL
XFILL_1__15375_ gnd vdd FILL
XFILL_3__7593_ gnd vdd FILL
XFILL_0__9623_ gnd vdd FILL
XFILL_4__14506_ gnd vdd FILL
XFILL_4__11718_ gnd vdd FILL
X_8162_ _8090_/A _7382_/CLK _8674_/R vdd _8162_/D gnd vdd DFFSR
XFILL_3__13147_ gnd vdd FILL
XFILL_4__15486_ gnd vdd FILL
XFILL_4__12698_ gnd vdd FILL
XFILL_3__10359_ gnd vdd FILL
XFILL_1__14326_ gnd vdd FILL
XFILL_1__11538_ gnd vdd FILL
XFILL_2__13877_ gnd vdd FILL
X_7113_ _7113_/A _7124_/A _7113_/C gnd _7153_/D vdd OAI21X1
XFILL_0__10179_ gnd vdd FILL
XFILL_0__9554_ gnd vdd FILL
XFILL_4__14437_ gnd vdd FILL
XFILL_2__15616_ gnd vdd FILL
XFILL_4__11649_ gnd vdd FILL
X_8093_ _8163_/Q gnd _8095_/A vdd INVX1
XFILL_5__13988_ gnd vdd FILL
XFILL_3__9263_ gnd vdd FILL
XFILL_2__12828_ gnd vdd FILL
XFILL_1__14257_ gnd vdd FILL
XFILL_1__11469_ gnd vdd FILL
XFILL_0__8505_ gnd vdd FILL
XSFILL104440x44050 gnd vdd FILL
XFILL_5__15727_ gnd vdd FILL
X_7044_ _7044_/A _7095_/B _7044_/C gnd _7130_/D vdd OAI21X1
XFILL_0__14987_ gnd vdd FILL
XFILL_0__9485_ gnd vdd FILL
XFILL_3__12029_ gnd vdd FILL
XFILL_4__14368_ gnd vdd FILL
XFILL_3__8214_ gnd vdd FILL
XFILL_1__13208_ gnd vdd FILL
XFILL_2__15547_ gnd vdd FILL
XSFILL33720x76050 gnd vdd FILL
XFILL_2__12759_ gnd vdd FILL
XFILL_1__14188_ gnd vdd FILL
XFILL_0__13938_ gnd vdd FILL
XFILL_4__13319_ gnd vdd FILL
XFILL_4__16107_ gnd vdd FILL
XFILL_5__15658_ gnd vdd FILL
XFILL_1__13139_ gnd vdd FILL
XFILL_4__14299_ gnd vdd FILL
XFILL_3__8145_ gnd vdd FILL
XSFILL89400x48050 gnd vdd FILL
XFILL_2__15478_ gnd vdd FILL
XFILL_0__13869_ gnd vdd FILL
XFILL_5__14609_ gnd vdd FILL
XFILL_4__16038_ gnd vdd FILL
XFILL_1__7160_ gnd vdd FILL
XSFILL99320x4050 gnd vdd FILL
XFILL_0__8367_ gnd vdd FILL
XFILL_5__15589_ gnd vdd FILL
XFILL_2__14429_ gnd vdd FILL
XFILL_3__8076_ gnd vdd FILL
X_8995_ _8995_/A gnd _8997_/A vdd INVX1
XFILL_0__15608_ gnd vdd FILL
XFILL_0__7318_ gnd vdd FILL
XFILL_1__7091_ gnd vdd FILL
X_7946_ _7944_/Y _7937_/B _7946_/C gnd _8028_/D vdd OAI21X1
XFILL_3__15719_ gnd vdd FILL
XFILL_0__15539_ gnd vdd FILL
XSFILL13640x43050 gnd vdd FILL
XFILL_0__7249_ gnd vdd FILL
X_7877_ _7821_/B _7877_/B gnd _7878_/C vdd NAND2X1
XSFILL59640x5050 gnd vdd FILL
XFILL_4__7840_ gnd vdd FILL
XSFILL13720x8050 gnd vdd FILL
X_9616_ _9616_/A _9615_/A _9616_/C gnd _9616_/Y vdd OAI21X1
XFILL_3__8978_ gnd vdd FILL
XFILL_1__9801_ gnd vdd FILL
X_9547_ _9548_/B _7499_/B gnd _9548_/C vdd NAND2X1
XFILL_4__9510_ gnd vdd FILL
XFILL_1__7993_ gnd vdd FILL
XFILL_3__7929_ gnd vdd FILL
XSFILL104520x24050 gnd vdd FILL
XFILL_5_BUFX2_insert233 gnd vdd FILL
XFILL_5_BUFX2_insert244 gnd vdd FILL
XSFILL33800x56050 gnd vdd FILL
XFILL_1__9732_ gnd vdd FILL
XFILL_5_BUFX2_insert255 gnd vdd FILL
XSFILL8760x22050 gnd vdd FILL
XFILL_1__6944_ gnd vdd FILL
XSFILL98760x44050 gnd vdd FILL
X_9478_ _9514_/A _9478_/B gnd _9479_/C vdd NAND2X1
XFILL_5_BUFX2_insert266 gnd vdd FILL
XFILL_5_BUFX2_insert277 gnd vdd FILL
X_10360_ _10360_/A _10405_/B _10360_/C gnd _10454_/D vdd OAI21X1
XFILL_5_BUFX2_insert288 gnd vdd FILL
XFILL_5_BUFX2_insert299 gnd vdd FILL
XFILL_4_BUFX2_insert900 gnd vdd FILL
X_8429_ _8379_/A _8429_/CLK _9203_/R vdd _8429_/D gnd vdd DFFSR
XFILL_1__9663_ gnd vdd FILL
XFILL_4_BUFX2_insert911 gnd vdd FILL
XFILL_4_BUFX2_insert922 gnd vdd FILL
XFILL_1__6875_ gnd vdd FILL
XFILL_4__9372_ gnd vdd FILL
XFILL_4_BUFX2_insert933 gnd vdd FILL
XFILL_1__8614_ gnd vdd FILL
X_10291_ _10325_/B _9779_/B gnd _10292_/C vdd NAND2X1
XFILL_4_BUFX2_insert944 gnd vdd FILL
XFILL_4_BUFX2_insert955 gnd vdd FILL
XFILL_4_BUFX2_insert966 gnd vdd FILL
XFILL_4__8323_ gnd vdd FILL
XFILL_1__9594_ gnd vdd FILL
XFILL111960x66050 gnd vdd FILL
XFILL_4_BUFX2_insert977 gnd vdd FILL
X_12030_ _12027_/Y _12030_/B _12029_/Y gnd _13110_/B vdd NAND3X1
XFILL_4_BUFX2_insert988 gnd vdd FILL
XFILL_4_BUFX2_insert999 gnd vdd FILL
XSFILL109240x36050 gnd vdd FILL
XSFILL13720x23050 gnd vdd FILL
XFILL_4__8254_ gnd vdd FILL
XSFILL79160x18050 gnd vdd FILL
XFILL112040x75050 gnd vdd FILL
XFILL_4__7205_ gnd vdd FILL
XFILL_1__8476_ gnd vdd FILL
XFILL_4__8185_ gnd vdd FILL
XFILL_1__7427_ gnd vdd FILL
X_13981_ _7447_/A gnd _15514_/B vdd INVX1
XFILL_2_BUFX2_insert101 gnd vdd FILL
X_15720_ _15720_/A _15720_/B gnd _15731_/B vdd NAND2X1
X_12932_ _12932_/Q _8180_/CLK _7391_/R vdd _12864_/Y gnd vdd DFFSR
XFILL_1__7358_ gnd vdd FILL
XFILL_4__7067_ gnd vdd FILL
X_15651_ _15651_/A _15651_/B _15651_/C gnd _12866_/B vdd AOI21X1
X_12863_ vdd _15610_/Y gnd _12864_/C vdd NAND2X1
XFILL_1_BUFX2_insert801 gnd vdd FILL
XFILL_1_BUFX2_insert812 gnd vdd FILL
XFILL_1__7289_ gnd vdd FILL
XFILL_5__6900_ gnd vdd FILL
X_14602_ _8126_/A gnd _14602_/Y vdd INVX1
XFILL_1_BUFX2_insert823 gnd vdd FILL
X_11814_ _11003_/Y _11484_/B _11349_/B _11236_/Y gnd _11815_/A vdd OAI22X1
XFILL_5__7880_ gnd vdd FILL
XFILL_2__9910_ gnd vdd FILL
XFILL_1_BUFX2_insert834 gnd vdd FILL
XFILL_1__9028_ gnd vdd FILL
X_15582_ _7709_/A _15969_/C _15581_/Y gnd _15582_/Y vdd AOI21X1
X_12794_ _12704_/A _12809_/CLK _12809_/R vdd _12794_/D gnd vdd DFFSR
XFILL_1_BUFX2_insert845 gnd vdd FILL
XFILL_1_BUFX2_insert856 gnd vdd FILL
XFILL_1_BUFX2_insert867 gnd vdd FILL
X_14533_ _8248_/A gnd _14533_/Y vdd INVX1
XFILL_1_BUFX2_insert878 gnd vdd FILL
XFILL_2__10110_ gnd vdd FILL
XFILL_5__11270_ gnd vdd FILL
X_11745_ _11078_/Y _11270_/B gnd _11745_/Y vdd NAND2X1
XBUFX2_insert100 _15009_/Y gnd _15922_/C vdd BUFX2
XFILL_1_BUFX2_insert889 gnd vdd FILL
XFILL_2__11090_ gnd vdd FILL
XFILL_5__9550_ gnd vdd FILL
XFILL_4__7969_ gnd vdd FILL
X_14464_ _10219_/Q gnd _14464_/Y vdd INVX1
XFILL_3__11400_ gnd vdd FILL
XFILL_4__10951_ gnd vdd FILL
XFILL_2__10041_ gnd vdd FILL
X_11676_ _11046_/Y _11676_/B gnd _11677_/C vdd NAND2X1
XFILL_2__9772_ gnd vdd FILL
XFILL_5__8501_ gnd vdd FILL
XFILL_3__12380_ gnd vdd FILL
XFILL_0__11220_ gnd vdd FILL
X_16203_ _16203_/A _16203_/B _15338_/C gnd _12908_/B vdd AOI21X1
XFILL_1__10771_ gnd vdd FILL
XFILL_2__6984_ gnd vdd FILL
XFILL112120x55050 gnd vdd FILL
XFILL_5__9481_ gnd vdd FILL
X_13415_ _13414_/Y _13415_/B gnd _13427_/B vdd NOR2X1
XFILL_5__10152_ gnd vdd FILL
X_10627_ _10658_/B _7555_/B gnd _10627_/Y vdd NAND2X1
XFILL_4__13670_ gnd vdd FILL
XFILL_1__12510_ gnd vdd FILL
X_14395_ _9065_/Q gnd _15845_/B vdd INVX1
XFILL_2__8723_ gnd vdd FILL
XFILL_3__11331_ gnd vdd FILL
XSFILL64040x40050 gnd vdd FILL
XFILL_4__10882_ gnd vdd FILL
XFILL_4__9639_ gnd vdd FILL
XFILL_1__13490_ gnd vdd FILL
XFILL_0__11151_ gnd vdd FILL
X_16134_ _16225_/C _14750_/Y _16306_/C _14779_/Y gnd _16138_/B vdd OAI22X1
XFILL_4__12621_ gnd vdd FILL
X_13346_ _13312_/A gnd _13352_/B vdd INVX1
X_10558_ _10606_/Q gnd _10560_/A vdd INVX1
XFILL_2__13800_ gnd vdd FILL
XFILL_3__14050_ gnd vdd FILL
XFILL_5__14960_ gnd vdd FILL
XFILL_2__8654_ gnd vdd FILL
XFILL_1__12441_ gnd vdd FILL
XFILL_0__10102_ gnd vdd FILL
XFILL_3__11262_ gnd vdd FILL
XFILL_2__14780_ gnd vdd FILL
XFILL_2__11992_ gnd vdd FILL
XFILL_5__8363_ gnd vdd FILL
XFILL_0__11082_ gnd vdd FILL
XFILL_4__15340_ gnd vdd FILL
XFILL_3__13001_ gnd vdd FILL
X_16065_ _16064_/Y _16065_/B gnd _16065_/Y vdd NOR2X1
XFILL_5__13911_ gnd vdd FILL
X_13277_ _13326_/A _13262_/B gnd _13285_/B vdd NOR2X1
XFILL_2__7605_ gnd vdd FILL
X_10489_ _15122_/A gnd _10489_/Y vdd INVX1
XFILL_2__13731_ gnd vdd FILL
XFILL_1__15160_ gnd vdd FILL
XFILL_3__11193_ gnd vdd FILL
XFILL_5__14891_ gnd vdd FILL
XFILL_2__10943_ gnd vdd FILL
XFILL_2__8585_ gnd vdd FILL
XFILL_1__12372_ gnd vdd FILL
XFILL_0__10033_ gnd vdd FILL
XFILL_5__7314_ gnd vdd FILL
XFILL_0__14910_ gnd vdd FILL
X_15016_ _15644_/D gnd _16014_/C vdd INVX8
X_12228_ _12224_/A _12704_/A _12224_/C gnd _12228_/Y vdd NAND3X1
XFILL_4__11503_ gnd vdd FILL
XFILL_0__15890_ gnd vdd FILL
XFILL_5__13842_ gnd vdd FILL
XFILL_4__15271_ gnd vdd FILL
XFILL_2__16450_ gnd vdd FILL
XFILL_3__10144_ gnd vdd FILL
XFILL_4__12483_ gnd vdd FILL
XFILL_1__11323_ gnd vdd FILL
XFILL_1__14111_ gnd vdd FILL
XFILL_2__13662_ gnd vdd FILL
XFILL_1__15091_ gnd vdd FILL
XFILL_5__7245_ gnd vdd FILL
XFILL_0__14841_ gnd vdd FILL
XSFILL84200x53050 gnd vdd FILL
XFILL_2__10874_ gnd vdd FILL
XFILL_4__14222_ gnd vdd FILL
XFILL_2__15401_ gnd vdd FILL
X_12159_ _12159_/A _12134_/A _12159_/C gnd _12159_/Y vdd OAI21X1
XFILL_4__11434_ gnd vdd FILL
XFILL_5__13773_ gnd vdd FILL
XFILL_2__12613_ gnd vdd FILL
XSFILL104360x59050 gnd vdd FILL
XFILL_1__14042_ gnd vdd FILL
XFILL_3__14952_ gnd vdd FILL
XFILL_4_CLKBUF1_insert1078 gnd vdd FILL
XFILL_2__7467_ gnd vdd FILL
XFILL_2__16381_ gnd vdd FILL
XFILL_1__11254_ gnd vdd FILL
XFILL_2__13593_ gnd vdd FILL
XFILL_0__14772_ gnd vdd FILL
XFILL_5__7176_ gnd vdd FILL
XFILL_0__11984_ gnd vdd FILL
XFILL_5__15512_ gnd vdd FILL
XFILL_0__9270_ gnd vdd FILL
XFILL_5__12724_ gnd vdd FILL
XFILL_6__10186_ gnd vdd FILL
XFILL_4__14153_ gnd vdd FILL
XFILL_2__9206_ gnd vdd FILL
XFILL_3__13903_ gnd vdd FILL
XFILL_2__15332_ gnd vdd FILL
XFILL_4__11365_ gnd vdd FILL
XFILL_3__14883_ gnd vdd FILL
XFILL_0__10935_ gnd vdd FILL
XFILL_0__13723_ gnd vdd FILL
XFILL_1__11185_ gnd vdd FILL
XFILL_4__13104_ gnd vdd FILL
XFILL_0__8221_ gnd vdd FILL
XFILL_4__10316_ gnd vdd FILL
X_15918_ _16438_/Q _15680_/B _15680_/C gnd _15927_/C vdd NAND3X1
XFILL_5__15443_ gnd vdd FILL
XFILL_5__12655_ gnd vdd FILL
XFILL_3__13834_ gnd vdd FILL
XFILL_6__14994_ gnd vdd FILL
XFILL_2__9137_ gnd vdd FILL
XFILL_4__14084_ gnd vdd FILL
XSFILL49080x17050 gnd vdd FILL
XFILL_1__10136_ gnd vdd FILL
XFILL_4__11296_ gnd vdd FILL
XFILL_2__15263_ gnd vdd FILL
XFILL_0__13654_ gnd vdd FILL
XFILL_2__12475_ gnd vdd FILL
XSFILL24520x34050 gnd vdd FILL
XSFILL23720x3050 gnd vdd FILL
XFILL_1__15993_ gnd vdd FILL
XFILL_6__6940_ gnd vdd FILL
X_7800_ _7798_/Y _7800_/B _7800_/C gnd _7894_/D vdd OAI21X1
XFILL_4__13035_ gnd vdd FILL
X_15849_ _15848_/Y _15849_/B gnd _15850_/B vdd NOR2X1
XFILL_5__11606_ gnd vdd FILL
XFILL_6__13945_ gnd vdd FILL
XSFILL64120x20050 gnd vdd FILL
XFILL_5__12586_ gnd vdd FILL
XFILL_5__15374_ gnd vdd FILL
XFILL_2__14214_ gnd vdd FILL
X_8780_ _8778_/Y _8714_/B _8779_/Y gnd _8818_/D vdd OAI21X1
XFILL_4__10247_ gnd vdd FILL
XFILL_0__12605_ gnd vdd FILL
XFILL_3__13765_ gnd vdd FILL
XFILL_2_BUFX2_insert690 gnd vdd FILL
XFILL_2__11426_ gnd vdd FILL
XFILL_3__10977_ gnd vdd FILL
XFILL_2__15194_ gnd vdd FILL
XFILL_1__10067_ gnd vdd FILL
XFILL_1__14944_ gnd vdd FILL
XFILL_0__16373_ gnd vdd FILL
XFILL_0__7103_ gnd vdd FILL
XFILL_0__13585_ gnd vdd FILL
XFILL_3__15504_ gnd vdd FILL
X_7731_ _7684_/B _9907_/B gnd _7732_/C vdd NAND2X1
XFILL_0__10797_ gnd vdd FILL
XFILL_5__14325_ gnd vdd FILL
XFILL_0__8083_ gnd vdd FILL
XFILL_5__11537_ gnd vdd FILL
XFILL_3__12716_ gnd vdd FILL
XFILL_2__8019_ gnd vdd FILL
XFILL112200x7050 gnd vdd FILL
XFILL_3__8901_ gnd vdd FILL
XSFILL13560x58050 gnd vdd FILL
XFILL_2__14145_ gnd vdd FILL
XFILL_4__10178_ gnd vdd FILL
XFILL_0__15324_ gnd vdd FILL
XFILL_3__9881_ gnd vdd FILL
XFILL_3__13696_ gnd vdd FILL
XFILL_2__11357_ gnd vdd FILL
XFILL_1__14875_ gnd vdd FILL
XFILL_0__7034_ gnd vdd FILL
XSFILL53960x63050 gnd vdd FILL
X_7662_ _7662_/Q _7662_/CLK _8430_/R vdd _7662_/D gnd vdd DFFSR
XFILL_5__14256_ gnd vdd FILL
XFILL_3__15435_ gnd vdd FILL
XFILL_5__11468_ gnd vdd FILL
XSFILL68760x23050 gnd vdd FILL
XFILL_3__8832_ gnd vdd FILL
XFILL_3__12647_ gnd vdd FILL
XFILL_2__10308_ gnd vdd FILL
XFILL_1__13826_ gnd vdd FILL
XFILL_0__15255_ gnd vdd FILL
XFILL_4__14986_ gnd vdd FILL
XFILL_2__11288_ gnd vdd FILL
XFILL_2__14076_ gnd vdd FILL
XFILL_0__12467_ gnd vdd FILL
XFILL_5_BUFX2_insert50 gnd vdd FILL
XFILL_5__13207_ gnd vdd FILL
XFILL_5_BUFX2_insert61 gnd vdd FILL
XFILL_6__15546_ gnd vdd FILL
X_9401_ _9401_/A _9657_/B gnd _9402_/C vdd NAND2X1
XFILL_5__10419_ gnd vdd FILL
XFILL_5__9748_ gnd vdd FILL
XFILL_6__12758_ gnd vdd FILL
XFILL_5_BUFX2_insert72 gnd vdd FILL
XFILL_5__14187_ gnd vdd FILL
XFILL_2__10239_ gnd vdd FILL
XFILL_3__15366_ gnd vdd FILL
XFILL_0__14206_ gnd vdd FILL
XFILL_5_BUFX2_insert83 gnd vdd FILL
X_7593_ _7593_/A gnd _7595_/A vdd INVX1
XFILL_2__13027_ gnd vdd FILL
XFILL_5__11399_ gnd vdd FILL
XFILL_4__13937_ gnd vdd FILL
XFILL_3__12578_ gnd vdd FILL
XFILL_3__8763_ gnd vdd FILL
XFILL_5_BUFX2_insert94 gnd vdd FILL
XFILL_0__11418_ gnd vdd FILL
XFILL_0__15186_ gnd vdd FILL
XFILL_1__13757_ gnd vdd FILL
XFILL_1__10969_ gnd vdd FILL
XFILL_5__9679_ gnd vdd FILL
XFILL_0__12398_ gnd vdd FILL
XFILL_5__13138_ gnd vdd FILL
XSFILL104440x39050 gnd vdd FILL
XFILL_3__14317_ gnd vdd FILL
X_9332_ _9332_/Q _7007_/CLK _9332_/R vdd _9332_/D gnd vdd DFFSR
XFILL_0__8985_ gnd vdd FILL
XFILL_3__7714_ gnd vdd FILL
XFILL_3__11529_ gnd vdd FILL
XFILL_1__12708_ gnd vdd FILL
XFILL_4__13868_ gnd vdd FILL
XFILL_3__15297_ gnd vdd FILL
XFILL_0__14137_ gnd vdd FILL
XSFILL8680x37050 gnd vdd FILL
XFILL_3__8694_ gnd vdd FILL
XFILL_0__11349_ gnd vdd FILL
XFILL_1__13688_ gnd vdd FILL
XFILL_0__7936_ gnd vdd FILL
X_9263_ _9321_/Q gnd _9263_/Y vdd INVX1
XFILL_4__15607_ gnd vdd FILL
XFILL_3__14248_ gnd vdd FILL
XFILL_4__13799_ gnd vdd FILL
XFILL_1__15427_ gnd vdd FILL
XFILL_4_BUFX2_insert229 gnd vdd FILL
XFILL_1__12639_ gnd vdd FILL
XFILL_0__14068_ gnd vdd FILL
XFILL_2__14978_ gnd vdd FILL
X_8214_ _8212_/Y _8244_/B _8214_/C gnd _8214_/Y vdd OAI21X1
XFILL_0__7867_ gnd vdd FILL
XSFILL48920x52050 gnd vdd FILL
XFILL_4__15538_ gnd vdd FILL
X_9194_ _9194_/Q _9194_/CLK _7914_/R vdd _9140_/Y gnd vdd DFFSR
XFILL_3__14179_ gnd vdd FILL
XFILL_0__13019_ gnd vdd FILL
XFILL_2__13929_ gnd vdd FILL
XFILL_1__15358_ gnd vdd FILL
XFILL_3__7576_ gnd vdd FILL
XFILL_0__9606_ gnd vdd FILL
X_8145_ _8133_/A _9041_/B gnd _8146_/C vdd NAND2X1
XFILL_3_BUFX2_insert907 gnd vdd FILL
XFILL_3_BUFX2_insert918 gnd vdd FILL
XFILL_0__7798_ gnd vdd FILL
XFILL_1__14309_ gnd vdd FILL
XFILL_4__15469_ gnd vdd FILL
XFILL_3_BUFX2_insert929 gnd vdd FILL
XSFILL49000x61050 gnd vdd FILL
XFILL_1__15289_ gnd vdd FILL
XFILL_1__8330_ gnd vdd FILL
XSFILL13640x38050 gnd vdd FILL
XFILL_0__9537_ gnd vdd FILL
X_8076_ _8118_/A _6924_/B gnd _8077_/C vdd NAND2X1
XFILL_3__9246_ gnd vdd FILL
X_7027_ _7027_/Q _7021_/CLK _9069_/R vdd _7027_/D gnd vdd DFFSR
XFILL_1__8261_ gnd vdd FILL
XFILL_0__9468_ gnd vdd FILL
XSFILL54120x52050 gnd vdd FILL